MODEL 1
REMARK VINA RESULT:    -6.071      0.000      0.000
REMARK INTER + INTRA:         -46.232
REMARK INTER:                 -20.390
REMARK INTRA:                 -25.842
REMARK CONF_INDEPENDENT:       14.318
REMARK UNBOUND:                25.842
REMARK Flexibility Score: inf
REMARK Active torsions [ 48 ] -> [ 48 ]
ROOT
ATOM      1  N1  LIG L   1      21.603  47.082  43.285  1.00  0.00     0.395 N 
ATOM      2  H1  LIG L   1      20.687  46.634  43.281  1.00  0.00    -0.082 HD
ATOM      3  H2  LIG L   1      22.367  46.869  43.926  1.00  0.00    -0.082 HD
ENDROOT
BRANCH    1    4
ATOM      4  C1  LIG L   1      21.339  48.431  43.729  1.00  0.00    -0.079 C 
BRANCH    4    5
ATOM      5  C2  LIG L   1      20.914  48.408  45.205  1.00  0.00    -0.019 C 
BRANCH    5    6
ATOM      6  C3  LIG L   1      22.006  48.907  46.149  1.00  0.00    -0.003 C 
BRANCH    6    7
ATOM      7  C4  LIG L   1      22.580  47.785  47.018  1.00  0.00    -0.011 C 
BRANCH    7    8
ATOM      8  C5  LIG L   1      22.788  46.475  46.240  1.00  0.00    -0.014 C 
BRANCH    8    9
ATOM      9  N2  LIG L   1      23.044  45.368  47.139  1.00  0.00     0.391 N 
ATOM     10  H3  LIG L   1      23.635  44.725  46.612  1.00  0.00    -0.085 HD
ATOM     11  H4  LIG L   1      23.381  45.879  47.955  1.00  0.00    -0.085 HD
BRANCH    9   12
ATOM     12  C6  LIG L   1      22.100  44.584  47.730  1.00  0.00    -0.001 C 
BRANCH   12   13
ATOM     13  N3  LIG L   1      21.754  43.425  47.046  1.00  0.00     0.391 N 
ATOM     14  H5  LIG L   1      22.632  42.950  46.833  1.00  0.00    -0.085 HD
ATOM     15  H6  LIG L   1      21.090  42.993  47.689  1.00  0.00    -0.085 HD
BRANCH   13   16
ATOM     16  C7  LIG L   1      20.995  43.447  45.801  1.00  0.00    -0.014 C 
BRANCH   16   17
ATOM     17  C8  LIG L   1      21.942  43.993  44.737  1.00  0.00     0.230 C 
BRANCH   17   18
ATOM     18  O1  LIG L   1      21.579  44.692  43.815  1.00  0.00    -0.369 OA
ATOM     19  H7  LIG L   1      21.089  44.319  43.109  1.00  0.00     0.212 HD
ENDBRANCH   17   18
BRANCH   17   20
ATOM     20  O2  LIG L   1      23.176  43.558  44.870  1.00  0.00    -0.369 OA
ATOM     21  H8  LIG L   1      23.841  43.847  44.277  1.00  0.00     0.212 HD
ENDBRANCH   17   20
ENDBRANCH   16   17
BRANCH   16   22
ATOM     22  C9  LIG L   1      19.734  44.308  45.920  1.00  0.00    -0.006 C 
BRANCH   22   23
ATOM     23 C10  LIG L   1      18.876  44.218  44.662  1.00  0.00     0.059 C 
BRANCH   23   24
ATOM     24 C11  LIG L   1      18.934  45.515  43.872  1.00  0.00     0.244 C 
BRANCH   24   25
ATOM     25  O3  LIG L   1      18.731  46.597  44.340  1.00  0.00    -0.367 OA
ATOM     26  H9  LIG L   1      18.023  47.120  44.020  1.00  0.00     0.212 HD
ENDBRANCH   24   25
BRANCH   24   27
ATOM     27  O4  LIG L   1      19.273  45.370  42.581  1.00  0.00    -0.367 OA
ATOM     28 H10  LIG L   1      19.951  44.769  42.339  1.00  0.00     0.212 HD
ENDBRANCH   24   27
ENDBRANCH   23   24
ENDBRANCH   22   23
ENDBRANCH   16   22
ENDBRANCH   13   16
ENDBRANCH   12   13
BRANCH   12   29
ATOM     29  O5  LIG L   1      21.568  44.880  48.780  1.00  0.00    -0.428 OA
ATOM     30 H11  LIG L   1      20.609  44.941  48.650  1.00  0.00     0.205 HD
ENDBRANCH   12   29
ENDBRANCH    9   12
ENDBRANCH    8    9
BRANCH    8   31
ATOM     31 C12  LIG L   1      23.992  46.638  45.292  1.00  0.00     0.230 C 
BRANCH   31   32
ATOM     32  O6  LIG L   1      24.246  45.821  44.451  1.00  0.00    -0.369 OA
ATOM     33 H12  LIG L   1      23.570  45.508  43.883  1.00  0.00     0.212 HD
ENDBRANCH   31   32
BRANCH   31   34
ATOM     34  O7  LIG L   1      24.722  47.735  45.456  1.00  0.00    -0.369 OA
ATOM     35 H13  LIG L   1      25.620  47.744  45.191  1.00  0.00     0.212 HD
ENDBRANCH   31   34
ENDBRANCH    8   31
ENDBRANCH    7    8
ENDBRANCH    6    7
ENDBRANCH    5    6
ENDBRANCH    4    5
ENDBRANCH    1    4
BRANCH    1   36
ATOM     36 C13  LIG L   1      22.186  46.661  42.150  1.00  0.00     0.045 C 
BRANCH   36   37
ATOM     37 C14  LIG L   1      23.501  47.327  41.720  1.00  0.00    -0.059 C 
BRANCH   37   38
ATOM     38 C15  LIG L   1      24.436  46.381  40.955  1.00  0.00    -0.031 C 
BRANCH   38   39
ATOM     39 C16  LIG L   1      24.060  46.157  39.521  1.00  0.00    -0.073 C 
ATOM     40  N4  LIG L   1      22.860  45.624  39.122  1.00  0.00     0.383 N 
ATOM     41 C17  LIG L   1      24.788  46.511  38.414  1.00  0.00    -0.014 C 
ATOM     42 C18  LIG L   1      22.809  45.610  37.758  1.00  0.00    -0.068 C 
ATOM     43 H14  LIG L   1      22.096  46.193  39.487  1.00  0.00    -0.085 HD
ATOM     44 H15  LIG L   1      22.771  44.673  39.480  1.00  0.00    -0.085 HD
ATOM     45 C19  LIG L   1      24.017  46.167  37.270  1.00  0.00    -0.027 C 
ATOM     46 C20  LIG L   1      21.803  45.184  36.902  1.00  0.00    -0.015 C 
ATOM     47 C21  LIG L   1      24.216  46.271  35.893  1.00  0.00     0.002 C 
ATOM     48 C22  LIG L   1      22.024  45.309  35.548  1.00  0.00    -0.002 C 
ATOM     49 C23  LIG L   1      23.217  45.842  35.051  1.00  0.00     0.000 C 
ENDBRANCH   38   39
ENDBRANCH   37   38
BRANCH   37   50
ATOM     50  N5  LIG L   1      24.187  47.830  42.887  1.00  0.00     0.398 N 
ATOM     51 H16  LIG L   1      25.042  47.283  42.978  1.00  0.00    -0.082 HD
ATOM     52 H17  LIG L   1      23.478  47.744  43.616  1.00  0.00    -0.082 HD
BRANCH   50   53
ATOM     53 C24  LIG L   1      24.551  49.132  42.979  1.00  0.00     0.063 C 
BRANCH   53   54
ATOM     54  O8  LIG L   1      24.907  49.616  44.034  1.00  0.00    -0.410 OA
ATOM     55 H18  LIG L   1      25.723  49.184  44.329  1.00  0.00     0.207 HD
ENDBRANCH   53   54
BRANCH   53   56
ATOM     56 C25  LIG L   1      24.383  49.936  41.690  1.00  0.00    -0.000 C 
ATOM     57 C26  LIG L   1      25.264  49.450  40.541  1.00  0.00     0.004 C 
ATOM     58 C27  LIG L   1      24.676  51.420  41.940  1.00  0.00     0.004 C 
ATOM     59 C28  LIG L   1      26.733  49.614  40.914  1.00  0.00     0.002 C 
ATOM     60 C29  LIG L   1      26.162  51.668  42.205  1.00  0.00     0.002 C 
ATOM     61 C30  LIG L   1      27.094  51.085  41.138  1.00  0.00    -0.028 C 
BRANCH   61   62
ATOM     62 C31  LIG L   1      27.096  51.903  39.835  1.00  0.00    -0.076 C 
BRANCH   62   63
ATOM     63  N6  LIG L   1      27.999  51.278  38.888  1.00  0.00     0.395 N 
ATOM     64 H19  LIG L   1      27.931  51.875  38.065  1.00  0.00    -0.082 HD
ATOM     65 H20  LIG L   1      27.658  50.326  39.021  1.00  0.00    -0.082 HD
BRANCH   63   66
ATOM     66 C32  LIG L   1      29.300  50.977  38.950  1.00  0.00     0.042 C 
BRANCH   66   67
ATOM     67 C33  LIG L   1      29.751  49.623  39.499  1.00  0.00    -0.068 C 
BRANCH   67   68
ATOM     68  N7  LIG L   1      30.171  49.610  40.900  1.00  0.00     0.378 N 
ATOM     69 C34  LIG L   1      29.528  48.606  41.728  1.00  0.00    -0.098 C 
ATOM     70 C35  LIG L   1      30.155  50.922  41.521  1.00  0.00    -0.098 C 
ATOM     71 H21  LIG L   1      31.147  49.320  40.844  1.00  0.00    -0.082 HD
ATOM     72 C36  LIG L   1      30.337  48.312  43.009  1.00  0.00    -0.098 C 
ATOM     73 C37  LIG L   1      31.373  51.760  41.105  1.00  0.00    -0.098 C 
ATOM     74  N8  LIG L   1      29.468  48.301  44.181  1.00  0.00     0.381 N 
ATOM     75  N9  LIG L   1      31.480  53.047  41.750  1.00  0.00     0.381 N 
ATOM     76 C38  LIG L   1      29.996  49.001  45.345  1.00  0.00    -0.098 C 
ATOM     77 H22  LIG L   1      28.654  48.844  43.891  1.00  0.00    -0.082 HD
ATOM     78 C39  LIG L   1      31.922  53.091  43.119  1.00  0.00    -0.098 C 
ATOM     79 H23  LIG L   1      32.357  53.398  41.363  1.00  0.00    -0.082 HD
ATOM     80 C40  LIG L   1      30.038  50.526  45.189  1.00  0.00    -0.098 C 
ATOM     81 C41  LIG L   1      31.007  52.515  44.230  1.00  0.00    -0.098 C 
ATOM     82 N10  LIG L   1      31.183  51.079  44.463  1.00  0.00     0.381 N 
ATOM     83 H24  LIG L   1      31.210  50.620  43.554  1.00  0.00    -0.082 HD
BRANCH   74   84
ATOM     84 C42  LIG L   1      29.021  46.970  44.523  1.00  0.00    -0.017 C 
BRANCH   84   85
ATOM     85 C43  LIG L   1      27.509  46.841  44.661  1.00  0.00     0.227 C 
BRANCH   85   86
ATOM     86  O9  LIG L   1      26.932  45.939  45.191  1.00  0.00    -0.369 OA
ATOM     87 H25  LIG L   1      26.098  46.089  45.593  1.00  0.00     0.212 HD
ENDBRANCH   85   86
BRANCH   85   88
ATOM     88 O10  LIG L   1      26.818  47.838  44.080  1.00  0.00    -0.369 OA
ATOM     89 H26  LIG L   1      25.921  47.708  43.839  1.00  0.00     0.212 HD
ENDBRANCH   85   88
ENDBRANCH   84   85
ENDBRANCH   74   84
BRANCH   75   90
ATOM     90 C44  LIG L   1      30.562  54.057  41.280  1.00  0.00    -0.017 C 
BRANCH   90   91
ATOM     91 C45  LIG L   1      30.260  54.082  39.779  1.00  0.00     0.227 C 
BRANCH   91   92
ATOM     92 O11  LIG L   1      31.112  54.099  38.928  1.00  0.00    -0.369 OA
ATOM     93 H27  LIG L   1      31.551  53.307  38.688  1.00  0.00     0.212 HD
ENDBRANCH   91   92
BRANCH   91   94
ATOM     94 O12  LIG L   1      28.966  54.057  39.448  1.00  0.00    -0.369 OA
ATOM     95 H28  LIG L   1      28.642  53.392  38.874  1.00  0.00     0.212 HD
ENDBRANCH   91   94
ENDBRANCH   90   91
ENDBRANCH   75   90
BRANCH   82   96
ATOM     96 C46  LIG L   1      32.468  50.755  45.077  1.00  0.00    -0.017 C 
BRANCH   96   97
ATOM     97 C47  LIG L   1      33.230  49.643  44.357  1.00  0.00     0.227 C 
BRANCH   97   98
ATOM     98 O13  LIG L   1      33.176  49.670  43.013  1.00  0.00    -0.369 OA
ATOM     99 H29  LIG L   1      32.358  49.542  42.574  1.00  0.00     0.212 HD
ENDBRANCH   97   98
BRANCH   97  100
ATOM    100 O14  LIG L   1      33.876  48.810  44.926  1.00  0.00    -0.369 OA
ATOM    101 H30  LIG L   1      34.808  48.796  44.834  1.00  0.00     0.212 HD
ENDBRANCH   97  100
ENDBRANCH   96   97
ENDBRANCH   82   96
ENDBRANCH   67   68
ENDBRANCH   66   67
BRANCH   66  102
ATOM    102 O15  LIG L   1      30.124  51.786  38.517  1.00  0.00    -0.412 OA
ATOM    103 H31  LIG L   1      29.659  52.532  38.104  1.00  0.00     0.207 HD
ENDBRANCH   66  102
ENDBRANCH   63   66
ENDBRANCH   62   63
ENDBRANCH   61   62
ENDBRANCH   53   56
ENDBRANCH   50   53
ENDBRANCH   37   50
ENDBRANCH   36   37
BRANCH   36  104
ATOM    104 O16  LIG L   1      21.696  45.742  41.510  1.00  0.00    -0.412 OA
ATOM    105 H32  LIG L   1      21.308  45.095  42.120  1.00  0.00     0.207 HD
ENDBRANCH   36  104
ENDBRANCH    1   36
TORSDOF 48
ENDMDL
