PSMA617-L-Trp.sdf
  ChemDraw09272115062D

 73 76  0  0  0  0  0  0  0  0999 V2000
    6.9278    2.2445    0.0000 C   0  0  0  0  0  0  0  0  0  0  0  0
    6.2160    1.0115    0.0000 N   0  0  0  0  0  0  0  0  0  0  0  0
    6.9278    1.4225    0.0000 C   0  0  0  0  0  0  0  0  0  0  0  0
    7.6397    1.0115    0.0000 C   0  0  0  0  0  0  0  0  0  0  0  0
    8.3515    1.4225    0.0000 C   0  0  0  0  0  0  0  0  0  0  0  0
    9.0634    1.0115    0.0000 C   0  0  0  0  0  0  0  0  0  0  0  0
    9.0634    0.1895    0.0000 O   0  0  0  0  0  0  0  0  0  0  0  0
    9.7752    1.4225    0.0000 O   0  0  0  0  0  0  0  0  0  0  0  0
    6.2160    2.6555    0.0000 O   0  0  0  0  0  0  0  0  0  0  0  0
    7.6397    2.6555    0.0000 O   0  0  0  0  0  0  0  0  0  0  0  0
    5.5041    1.4225    0.0000 C   0  0  0  0  0  0  0  0  0  0  0  0
    4.7922    1.0115    0.0000 N   0  0  0  0  0  0  0  0  0  0  0  0
    5.5041    2.2445    0.0000 O   0  0  0  0  0  0  0  0  0  0  0  0
    4.0804    1.4225    0.0000 C   0  0  0  0  0  0  0  0  0  0  0  0
    3.3685    1.0115    0.0000 C   0  0  0  0  0  0  0  0  0  0  0  0
    2.6567    1.4225    0.0000 C   0  0  0  0  0  0  0  0  0  0  0  0
    1.9448    1.0115    0.0000 C   0  0  0  0  0  0  0  0  0  0  0  0
    1.2330    1.4225    0.0000 C   0  0  0  0  0  0  0  0  0  0  0  0
    0.5211    1.0115    0.0000 N   0  0  0  0  0  0  0  0  0  0  0  0
    4.0804    2.2445    0.0000 C   0  0  0  0  0  0  0  0  0  0  0  0
    3.3685    2.6555    0.0000 O   0  0  0  0  0  0  0  0  0  0  0  0
    4.7922    2.6555    0.0000 O   0  0  0  0  0  0  0  0  0  0  0  0
   -0.1907    1.4225    0.0000 C   0  0  0  0  0  0  0  0  0  0  0  0
   -0.9026    1.0115    0.0000 C   0  0  0  0  0  0  0  0  0  0  0  0
   -1.6145    1.4225    0.0000 C   0  0  0  0  0  0  0  0  0  0  0  0
   -0.1907    2.2445    0.0000 O   0  0  0  0  0  0  0  0  0  0  0  0
   -0.9026    0.1895    0.0000 N   0  0  0  0  0  0  0  0  0  0  0  0
   -2.2794    2.7276    0.0000 N   0  0  0  0  0  0  0  0  0  0  0  0
   -1.6145    2.2445    0.0000 C   0  0  0  0  0  0  0  0  0  0  0  0
   -0.9495    2.7276    0.0000 C   0  0  0  0  0  0  0  0  0  0  0  0
   -1.2035    3.5094    0.0000 C   0  0  0  0  0  0  0  0  0  0  0  0
   -0.7925    4.2212    0.0000 C   0  0  0  0  0  0  0  0  0  0  0  0
   -1.2035    4.9331    0.0000 C   0  0  0  0  0  0  0  0  0  0  0  0
   -2.0254    4.9331    0.0000 C   0  0  0  0  0  0  0  0  0  0  0  0
   -2.4364    4.2212    0.0000 C   0  0  0  0  0  0  0  0  0  0  0  0
   -2.0254    3.5094    0.0000 C   0  0  0  0  0  0  0  0  0  0  0  0
   -1.6145   -0.2215    0.0000 C   0  0  0  0  0  0  0  0  0  0  0  0
   -1.6145   -1.0434    0.0000 O   0  0  0  0  0  0  0  0  0  0  0  0
   -2.3263    0.1895    0.0000 C   0  0  0  0  0  0  0  0  0  0  0  0
   -2.3263    1.0115    0.0000 C   0  0  0  0  0  0  0  0  0  0  0  0
   -3.0382    1.4225    0.0000 C   0  0  0  0  0  0  0  0  0  0  0  0
   -3.7500    1.0115    0.0000 C   0  0  0  0  0  0  0  0  0  0  0  0
   -3.7500    0.1895    0.0000 C   0  0  0  0  0  0  0  0  0  0  0  0
   -3.0382   -0.2215    0.0000 C   0  0  0  0  0  0  0  0  0  0  0  0
   -4.4619    1.4225    0.0000 C   0  0  0  0  0  0  0  0  0  0  0  0
   -5.1737    1.0115    0.0000 N   0  0  0  0  0  0  0  0  0  0  0  0
   -6.5974    0.1895    0.0000 N   0  0  0  0  0  0  0  0  0  0  0  0
   -7.7203   -1.7553    0.0000 N   0  0  0  0  0  0  0  0  0  0  0  0
   -5.7755   -2.8781    0.0000 N   0  0  0  0  0  0  0  0  0  0  0  0
   -4.6526   -0.9333    0.0000 N   0  0  0  0  0  0  0  0  0  0  0  0
   -7.3093   -2.4671    0.0000 C   0  0  0  0  0  0  0  0  0  0  0  0
   -6.4873   -2.4671    0.0000 C   0  0  0  0  0  0  0  0  0  0  0  0
   -5.0636   -2.4671    0.0000 C   0  0  0  0  0  0  0  0  0  0  0  0
   -5.0636   -1.6452    0.0000 C   0  0  0  0  0  0  0  0  0  0  0  0
   -5.0636   -0.2215    0.0000 C   0  0  0  0  0  0  0  0  0  0  0  0
   -5.8856   -0.2215    0.0000 C   0  0  0  0  0  0  0  0  0  0  0  0
   -7.3093   -0.2215    0.0000 C   0  0  0  0  0  0  0  0  0  0  0  0
   -7.3093   -1.0434    0.0000 C   0  0  0  0  0  0  0  0  0  0  0  0
   -5.7755   -3.7001    0.0000 C   0  0  0  0  0  0  0  0  0  0  0  0
   -8.5423   -1.7553    0.0000 C   0  0  0  0  0  0  0  0  0  0  0  0
   -3.8306   -0.9333    0.0000 C   0  0  0  0  0  0  0  0  0  0  0  0
   -6.5974    1.0115    0.0000 C   0  0  0  0  0  0  0  0  0  0  0  0
   -5.8856    1.4225    0.0000 C   0  0  0  0  0  0  0  0  0  0  0  0
   -3.4196   -1.6452    0.0000 C   0  0  0  0  0  0  0  0  0  0  0  0
   -6.4873   -4.1111    0.0000 C   0  0  0  0  0  0  0  0  0  0  0  0
   -8.9533   -2.4671    0.0000 C   0  0  0  0  0  0  0  0  0  0  0  0
   -5.8856    2.2445    0.0000 O   0  0  0  0  0  0  0  0  0  0  0  0
   -6.4873   -4.9331    0.0000 O   0  0  0  0  0  0  0  0  0  0  0  0
   -7.1992   -3.7001    0.0000 O   0  0  0  0  0  0  0  0  0  0  0  0
   -9.7752   -2.4671    0.0000 O   0  0  0  0  0  0  0  0  0  0  0  0
   -8.5423   -3.1790    0.0000 O   0  0  0  0  0  0  0  0  0  0  0  0
   -3.8306   -2.3570    0.0000 O   0  0  0  0  0  0  0  0  0  0  0  0
   -2.5977   -1.6452    0.0000 O   0  0  0  0  0  0  0  0  0  0  0  0
  2  3  1  0      
  3  1  1  6      
  3  4  1  0      
  4  5  1  0      
  5  6  1  0      
  6  7  2  0      
  6  8  1  0      
  1  9  2  0      
  1 10  1  0      
 11 12  1  0      
 11 13  2  0      
 14 15  1  0      
 15 16  1  0      
 16 17  1  0      
 17 18  1  0      
 18 19  1  0      
 20 21  2  0      
 20 22  1  0      
 14 20  1  1      
 14 12  1  0      
  2 11  1  0      
 23 24  1  0      
 24 25  1  0      
 23 26  2  0      
 24 27  1  1      
 28 29  1  0      
 29 30  2  0      
 31 32  1  0      
 32 33  2  0      
 33 34  1  0      
 34 35  2  0      
 35 36  1  0      
 31 36  2  0      
 25 29  1  0      
 30 31  1  0      
 36 28  1  0      
 19 23  1  0      
 37 38  2  0      
 39 40  1  0      
 40 41  1  0      
 41 42  1  0      
 42 43  1  0      
 43 44  1  0      
 39 44  1  0      
 39 37  1  1      
 45 46  1  0      
 42 45  1  6      
 27 37  1  0      
 51 52  1  0      
 49 52  1  0      
 48 51  1  0      
 53 54  1  0      
 49 53  1  0      
 50 54  1  0      
 55 56  1  0      
 47 56  1  0      
 50 55  1  0      
 57 58  1  0      
 48 58  1  0      
 47 57  1  0      
 49 59  1  0      
 48 60  1  0      
 50 61  1  0      
 47 62  1  0      
 62 63  1  0      
 61 64  1  0      
 59 65  1  0      
 60 66  1  0      
 63 46  1  0      
 63 67  2  0      
 65 68  1  0      
 65 69  2  0      
 66 70  2  0      
 66 71  1  0      
 64 72  2  0      
 64 73  1  0      
M  END
$$$$
