REMARK Flexibility Score: inf
REMARK Active torsions [ 48 ] -> [ 48 ]
ROOT
ATOM      1  N1  LIG L   1       6.860   1.286   7.735  1.00  0.00     0.395 N 
ATOM      2  H1  LIG L   1       7.482   1.265   6.927  1.00  0.00    -0.082 HD
ATOM      3  H2  LIG L   1       6.788   2.046   8.411  1.00  0.00    -0.082 HD
ENDROOT
BRANCH    1    4
ATOM      4  C1  LIG L   1       7.393   0.278   8.622  1.00  0.00    -0.079 C 
BRANCH    4    5
ATOM      5  C2  LIG L   1       8.130  -0.788   7.798  1.00  0.00    -0.019 C 
BRANCH    5    6
ATOM      6  C3  LIG L   1       8.478  -2.035   8.608  1.00  0.00    -0.003 C 
BRANCH    6    7
ATOM      7  C4  LIG L   1       9.382  -2.997   7.833  1.00  0.00    -0.011 C 
BRANCH    7    8
ATOM      8  C5  LIG L   1       8.743  -3.493   6.525  1.00  0.00    -0.014 C 
BRANCH    8    9
ATOM      9  N2  LIG L   1       7.517  -4.221   6.785  1.00  0.00     0.391 N 
ATOM     10  H3  LIG L   1       7.597  -5.083   6.246  1.00  0.00    -0.085 HD
ATOM     11  H4  LIG L   1       7.520  -4.210   7.805  1.00  0.00    -0.085 HD
BRANCH    9   12
ATOM     12  C6  LIG L   1       6.254  -3.769   6.551  1.00  0.00    -0.001 C 
BRANCH   12   13
ATOM     13  N3  LIG L   1       6.107  -2.896   5.480  1.00  0.00     0.391 N 
ATOM     14  H5  LIG L   1       5.102  -2.764   5.360  1.00  0.00    -0.085 HD
ATOM     15  H6  LIG L   1       6.687  -2.109   5.771  1.00  0.00    -0.085 HD
BRANCH   13   16
ATOM     16  C7  LIG L   1       6.638  -3.186   4.154  1.00  0.00    -0.014 C 
BRANCH   16   17
ATOM     17  C8  LIG L   1       7.390  -1.933   3.715  1.00  0.00     0.230 C 
BRANCH   17   18
ATOM     18  O1  LIG L   1       8.597  -1.826   3.765  1.00  0.00    -0.369 OA
ATOM     19  H7  LIG L   1       9.121  -2.558   4.025  1.00  0.00     0.212 HD
ENDBRANCH   17   18
BRANCH   17   20
ATOM     20  O2  LIG L   1       6.593  -0.950   3.359  1.00  0.00    -0.369 OA
ATOM     21  H8  LIG L   1       5.666  -1.083   3.336  1.00  0.00     0.212 HD
ENDBRANCH   17   20
ENDBRANCH   16   17
BRANCH   16   22
ATOM     22  C9  LIG L   1       5.527  -3.545   3.163  1.00  0.00    -0.006 C 
BRANCH   22   23
ATOM     23 C10  LIG L   1       4.700  -4.729   3.655  1.00  0.00     0.059 C 
BRANCH   23   24
ATOM     24 C11  LIG L   1       3.690  -5.159   2.604  1.00  0.00     0.244 C 
BRANCH   24   25
ATOM     25  O3  LIG L   1       3.761  -4.872   1.446  1.00  0.00    -0.367 OA
ATOM     26  H9  LIG L   1       4.460  -4.329   1.140  1.00  0.00     0.212 HD
ENDBRANCH   24   25
BRANCH   24   27
ATOM     27  O4  LIG L   1       2.698  -5.937   3.067  1.00  0.00    -0.367 OA
ATOM     28 H10  LIG L   1       2.657  -6.152   3.978  1.00  0.00     0.212 HD
ENDBRANCH   24   27
ENDBRANCH   23   24
ENDBRANCH   22   23
ENDBRANCH   16   22
ENDBRANCH   13   16
ENDBRANCH   12   13
BRANCH   12   29
ATOM     29  O5  LIG L   1       5.308  -4.083   7.244  1.00  0.00    -0.428 OA
ATOM     30 H11  LIG L   1       4.929  -3.289   7.652  1.00  0.00     0.205 HD
ENDBRANCH   12   29
ENDBRANCH    9   12
ENDBRANCH    8    9
BRANCH    8   31
ATOM     31 C12  LIG L   1       9.734  -4.425   5.801  1.00  0.00     0.230 C 
BRANCH   31   32
ATOM     32  O6  LIG L   1      10.100  -5.457   6.290  1.00  0.00    -0.369 OA
ATOM     33 H12  LIG L   1       9.787  -5.711   7.136  1.00  0.00     0.212 HD
ENDBRANCH   31   32
BRANCH   31   34
ATOM     34  O7  LIG L   1      10.149  -4.022   4.606  1.00  0.00    -0.369 OA
ATOM     35 H13  LIG L   1       9.843  -3.210   4.253  1.00  0.00     0.212 HD
ENDBRANCH   31   34
ENDBRANCH    8   31
ENDBRANCH    7    8
ENDBRANCH    6    7
ENDBRANCH    5    6
ENDBRANCH    4    5
ENDBRANCH    1    4
BRANCH    1   36
ATOM     36 C13  LIG L   1       5.629   1.386   7.207  1.00  0.00     0.045 C 
BRANCH   36   37
ATOM     37 C14  LIG L   1       4.466   0.706   7.944  1.00  0.00    -0.059 C 
BRANCH   37   38
ATOM     38 C15  LIG L   1       4.267  -0.760   7.537  1.00  0.00    -0.031 C 
BRANCH   38   39
ATOM     39 C16  LIG L   1       3.696  -0.955   6.165  1.00  0.00    -0.073 C 
ATOM     40  N4  LIG L   1       3.975  -0.135   5.100  1.00  0.00     0.383 N 
ATOM     41 C17  LIG L   1       2.901  -1.989   5.743  1.00  0.00    -0.014 C 
ATOM     42 C18  LIG L   1       3.349  -0.618   3.988  1.00  0.00    -0.068 C 
ATOM     43 H14  LIG L   1       4.983  -0.112   4.942  1.00  0.00    -0.085 HD
ATOM     44 H15  LIG L   1       3.645   0.810   5.298  1.00  0.00    -0.085 HD
ATOM     45 C19  LIG L   1       2.655  -1.798   4.355  1.00  0.00    -0.027 C 
ATOM     46 C20  LIG L   1       3.346  -0.146   2.683  1.00  0.00    -0.015 C 
ATOM     47 C21  LIG L   1       1.929  -2.495   3.389  1.00  0.00     0.002 C 
ATOM     48 C22  LIG L   1       2.629  -0.861   1.749  1.00  0.00    -0.002 C 
ATOM     49 C23  LIG L   1       1.926  -2.018   2.099  1.00  0.00     0.000 C 
ENDBRANCH   38   39
ENDBRANCH   37   38
BRANCH   37   50
ATOM     50  N5  LIG L   1       3.247   1.438   7.693  1.00  0.00     0.398 N 
ATOM     51 H16  LIG L   1       2.491   0.890   8.102  1.00  0.00    -0.082 HD
ATOM     52 H17  LIG L   1       3.264   1.558   6.680  1.00  0.00    -0.082 HD
BRANCH   50   53
ATOM     53 C24  LIG L   1       3.088   2.708   8.140  1.00  0.00     0.063 C 
BRANCH   53   54
ATOM     54  O8  LIG L   1       3.885   3.213   8.905  1.00  0.00    -0.410 OA
ATOM     55 H18  LIG L   1       3.825   2.777   9.769  1.00  0.00     0.207 HD
ENDBRANCH   53   54
BRANCH   53   56
ATOM     56 C25  LIG L   1       1.800   3.391   7.683  1.00  0.00    -0.000 C 
ATOM     57 C26  LIG L   1       1.360   2.998   6.274  1.00  0.00     0.004 C 
ATOM     58 C27  LIG L   1       1.949   4.916   7.743  1.00  0.00     0.004 C 
ATOM     59 C28  LIG L   1       2.414   3.438   5.264  1.00  0.00     0.002 C 
ATOM     60 C29  LIG L   1       2.909   5.435   6.672  1.00  0.00     0.002 C 
ATOM     61 C30  LIG L   1       2.579   4.960   5.253  1.00  0.00    -0.028 C 
BRANCH   61   62
ATOM     62 C31  LIG L   1       1.365   5.686   4.647  1.00  0.00    -0.076 C 
BRANCH   62   63
ATOM     63  N6  LIG L   1       1.111   5.154   3.323  1.00  0.00     0.395 N 
ATOM     64 H19  LIG L   1       1.603   4.261   3.327  1.00  0.00    -0.082 HD
ATOM     65 H20  LIG L   1       1.336   6.009   2.814  1.00  0.00    -0.082 HD
BRANCH   63   66
ATOM     66 C32  LIG L   1      -0.020   4.884   2.663  1.00  0.00     0.042 C 
BRANCH   66   67
ATOM     67 C33  LIG L   1      -1.356   5.428   3.172  1.00  0.00    -0.068 C 
BRANCH   67   68
ATOM     68  N7  LIG L   1      -2.111   4.541   4.056  1.00  0.00     0.378 N 
ATOM     69 C34  LIG L   1      -2.169   4.957   5.446  1.00  0.00    -0.098 C 
ATOM     70 C35  LIG L   1      -1.749   3.142   3.920  1.00  0.00    -0.098 C 
ATOM     71 H21  LIG L   1      -3.067   4.635   3.713  1.00  0.00    -0.082 HD
ATOM     72 C36  LIG L   1      -3.344   4.296   6.196  1.00  0.00    -0.098 C 
ATOM     73 C37  LIG L   1      -2.374   2.516   2.664  1.00  0.00    -0.098 C 
ATOM     74  N8  LIG L   1      -2.905   3.764   7.483  1.00  0.00     0.381 N 
ATOM     75  N9  LIG L   1      -2.136   1.101   2.503  1.00  0.00     0.381 N 
ATOM     76 C38  LIG L   1      -3.410   2.435   7.803  1.00  0.00    -0.098 C 
ATOM     77 H22  LIG L   1      -1.898   3.646   7.371  1.00  0.00    -0.082 HD
ATOM     78 C39  LIG L   1      -2.879   0.184   3.326  1.00  0.00    -0.098 C 
ATOM     79 H23  LIG L   1      -2.661   0.901   1.651  1.00  0.00    -0.082 HD
ATOM     80 C40  LIG L   1      -2.802   1.315   6.949  1.00  0.00    -0.098 C 
ATOM     81 C41  LIG L   1      -2.606   0.142   4.851  1.00  0.00    -0.098 C 
ATOM     82 N10  LIG L   1      -3.391   1.109   5.625  1.00  0.00     0.381 N 
ATOM     83 H24  LIG L   1      -3.348   2.002   5.136  1.00  0.00    -0.082 HD
BRANCH   74   84
ATOM     84 C42  LIG L   1      -3.131   4.691   8.568  1.00  0.00    -0.017 C 
BRANCH   84   85
ATOM     85 C43  LIG L   1      -2.253   5.935   8.513  1.00  0.00     0.227 C 
BRANCH   85   86
ATOM     86  O9  LIG L   1      -1.211   6.028   7.937  1.00  0.00    -0.369 OA
ATOM     87 H25  LIG L   1      -0.885   5.304   7.439  1.00  0.00     0.212 HD
ENDBRANCH   85   86
BRANCH   85   88
ATOM     88 O10  LIG L   1      -2.726   6.972   9.229  1.00  0.00    -0.369 OA
ATOM     89 H26  LIG L   1      -3.544   6.895   9.680  1.00  0.00     0.212 HD
ENDBRANCH   85   88
ENDBRANCH   84   85
ENDBRANCH   74   84
BRANCH   75   90
ATOM     90 C44  LIG L   1      -0.803   0.738   2.081  1.00  0.00    -0.017 C 
BRANCH   90   91
ATOM     91 C45  LIG L   1       0.349   1.093   3.025  1.00  0.00     0.227 C 
BRANCH   91   92
ATOM     92 O11  LIG L   1       0.521   0.566   4.094  1.00  0.00    -0.369 OA
ATOM     93 H27  LIG L   1      -0.078  -0.088   4.396  1.00  0.00     0.212 HD
ENDBRANCH   91   92
BRANCH   91   94
ATOM     94 O12  LIG L   1       1.194   2.027   2.581  1.00  0.00    -0.369 OA
ATOM     95 H28  LIG L   1       1.051   2.430   1.748  1.00  0.00     0.212 HD
ENDBRANCH   91   94
ENDBRANCH   90   91
ENDBRANCH   75   90
BRANCH   82   96
ATOM     96 C46  LIG L   1      -4.814   0.782   5.669  1.00  0.00    -0.017 C 
BRANCH   96   97
ATOM     97 C47  LIG L   1      -5.129  -0.481   6.469  1.00  0.00     0.227 C 
BRANCH   97   98
ATOM     98 O13  LIG L   1      -5.198  -1.623   5.761  1.00  0.00    -0.369 OA
ATOM     99 H29  LIG L   1      -5.085  -1.605   4.831  1.00  0.00     0.212 HD
ENDBRANCH   97   98
BRANCH   97  100
ATOM    100 O14  LIG L   1      -5.271  -0.490   7.659  1.00  0.00    -0.369 OA
ATOM    101 H30  LIG L   1      -5.221   0.311   8.143  1.00  0.00     0.212 HD
ENDBRANCH   97  100
ENDBRANCH   96   97
ENDBRANCH   82   96
ENDBRANCH   67   68
ENDBRANCH   66   67
BRANCH   66  102
ATOM    102 O15  LIG L   1       0.036   4.231   1.619  1.00  0.00    -0.412 OA
ATOM    103 H31  LIG L   1       0.464   4.762   0.928  1.00  0.00     0.207 HD
ENDBRANCH   66  102
ENDBRANCH   63   66
ENDBRANCH   62   63
ENDBRANCH   61   62
ENDBRANCH   53   56
ENDBRANCH   50   53
ENDBRANCH   37   50
ENDBRANCH   36   37
BRANCH   36  104
ATOM    104 O16  LIG L   1       5.446   2.042   6.191  1.00  0.00    -0.412 OA
ATOM    105 H32  LIG L   1       5.533   2.986   6.397  1.00  0.00     0.207 HD
ENDBRANCH   36  104
ENDBRANCH    1   36
TORSDOF 48
