Coordinates from ORCA-job /home/ofedorov/calculations/oleg/for_docking/PSMA617-L-Trp
  PyMOL2.5          3D                             0

143146  0  0  0  0  0  0  0  0999 V2000
    7.3898   -1.9325    3.7149 C   0  0  0  0  0  0  0  0  0  0  0  0
    6.1066   -2.8964    5.4802 N   0  0  0  0  0  0  0  0  0  0  0  0
    6.6383   -3.1859    4.1544 C   0  0  0  0  0  0  0  0  0  0  0  0
    5.5268   -3.5445    3.1634 C   0  0  0  0  0  0  0  0  0  0  0  0
    4.7000   -4.7290    3.6555 C   0  0  0  0  0  0  0  0  0  0  0  0
    3.6902   -5.1590    2.6038 C   0  0  0  0  0  0  0  0  0  0  0  0
    3.7606   -4.8724    1.4462 O   0  0  0  0  0  0  0  0  0  0  0  0
    2.6976   -5.9368    3.0672 O   0  0  0  0  0  0  0  0  0  0  0  0
    8.5967   -1.8261    3.7652 O   0  0  0  0  0  0  0  0  0  0  0  0
    6.5927   -0.9498    3.3589 O   0  0  0  0  0  0  0  0  0  0  0  0
    6.2545   -3.7686    6.5506 C   0  0  0  0  0  0  0  0  0  0  0  0
    7.5168   -4.2210    6.7854 N   0  0  0  0  0  0  0  0  0  0  0  0
    5.3085   -4.0829    7.2440 O   0  0  0  0  0  0  0  0  0  0  0  0
    8.7427   -3.4925    6.5248 C   0  0  0  0  0  0  0  0  0  0  0  0
    9.3820   -2.9970    7.8330 C   0  0  0  0  0  0  0  0  0  0  0  0
    8.4779   -2.0353    8.6082 C   0  0  0  0  0  0  0  0  0  0  0  0
    8.1298   -0.7880    7.7981 C   0  0  0  0  0  0  0  0  0  0  0  0
    7.3930    0.2783    8.6217 C   0  0  0  0  0  0  0  0  0  0  0  0
    6.8604    1.2859    7.7353 N   0  0  0  0  0  0  0  0  0  0  0  0
    9.7337   -4.4254    5.8015 C   0  0  0  0  0  0  0  0  0  0  0  0
   10.0998   -5.4565    6.2900 O   0  0  0  0  0  0  0  0  0  0  0  0
   10.1491   -4.0219    4.6063 O   0  0  0  0  0  0  0  0  0  0  0  0
    5.6287    1.3860    7.2065 C   0  0  0  0  0  0  0  0  0  0  0  0
    4.4658    0.7058    7.9439 C   0  0  0  0  0  0  0  0  0  0  0  0
    4.2671   -0.7602    7.5369 C   0  0  0  0  0  0  0  0  0  0  0  0
    5.4463    2.0422    6.1914 O   0  0  0  0  0  0  0  0  0  0  0  0
    3.2471    1.4378    7.6925 N   0  0  0  0  0  0  0  0  0  0  0  0
    3.9754   -0.1351    5.1003 N   0  0  0  0  0  0  0  0  0  0  0  0
    3.6961   -0.9550    6.1646 C   0  0  0  0  0  0  0  0  0  0  0  0
    2.9007   -1.9887    5.7434 C   0  0  0  0  0  0  0  0  0  0  0  0
    2.6555   -1.7977    4.3551 C   0  0  0  0  0  0  0  0  0  0  0  0
    1.9295   -2.4954    3.3891 C   0  0  0  0  0  0  0  0  0  0  0  0
    1.9261   -2.0179    2.0991 C   0  0  0  0  0  0  0  0  0  0  0  0
    2.6291   -0.8609    1.7492 C   0  0  0  0  0  0  0  0  0  0  0  0
    3.3462   -0.1457    2.6833 C   0  0  0  0  0  0  0  0  0  0  0  0
    3.3485   -0.6181    3.9884 C   0  0  0  0  0  0  0  0  0  0  0  0
    3.0880    2.7081    8.1396 C   0  0  0  0  0  0  0  0  0  0  0  0
    3.8848    3.2134    8.9046 O   0  0  0  0  0  0  0  0  0  0  0  0
    1.8001    3.3908    7.6831 C   0  0  0  0  0  0  0  0  0  0  0  0
    1.3601    2.9982    6.2744 C   0  0  0  0  0  0  0  0  0  0  0  0
    2.4139    3.4377    5.2641 C   0  0  0  0  0  0  0  0  0  0  0  0
    2.5785    4.9597    5.2529 C   0  0  0  0  0  0  0  0  0  0  0  0
    2.9088    5.4354    6.6724 C   0  0  0  0  0  0  0  0  0  0  0  0
    1.9491    4.9156    7.7431 C   0  0  0  0  0  0  0  0  0  0  0  0
    1.3650    5.6863    4.6466 C   0  0  0  0  0  0  0  0  0  0  0  0
    1.1106    5.1544    3.3233 N   0  0  0  0  0  0  0  0  0  0  0  0
   -2.1106    4.5412    4.0555 N   0  0  0  0  0  0  0  0  0  0  0  0
   -2.1359    1.1006    2.5027 N   0  0  0  0  0  0  0  0  0  0  0  0
   -3.3911    1.1087    5.6253 N   0  0  0  0  0  0  0  0  0  0  0  0
   -2.9050    3.7641    7.4828 N   0  0  0  0  0  0  0  0  0  0  0  0
   -2.8794    0.1839    3.3264 C   0  0  0  0  0  0  0  0  0  0  0  0
   -2.6058    0.1425    4.8506 C   0  0  0  0  0  0  0  0  0  0  0  0
   -2.8018    1.3151    6.9493 C   0  0  0  0  0  0  0  0  0  0  0  0
   -3.4101    2.4352    7.8028 C   0  0  0  0  0  0  0  0  0  0  0  0
   -3.3444    4.2959    6.1961 C   0  0  0  0  0  0  0  0  0  0  0  0
   -2.1691    4.9567    5.4465 C   0  0  0  0  0  0  0  0  0  0  0  0
   -1.7493    3.1421    3.9204 C   0  0  0  0  0  0  0  0  0  0  0  0
   -2.3735    2.5155    2.6643 C   0  0  0  0  0  0  0  0  0  0  0  0
   -4.8144    0.7821    5.6690 C   0  0  0  0  0  0  0  0  0  0  0  0
   -0.8033    0.7377    2.0807 C   0  0  0  0  0  0  0  0  0  0  0  0
   -3.1306    4.6911    8.5680 C   0  0  0  0  0  0  0  0  0  0  0  0
   -1.3557    5.4281    3.1720 C   0  0  0  0  0  0  0  0  0  0  0  0
   -0.0197    4.8840    2.6633 C   0  0  0  0  0  0  0  0  0  0  0  0
   -2.2529    5.9354    8.5130 C   0  0  0  0  0  0  0  0  0  0  0  0
   -5.1289   -0.4814    6.4693 C   0  0  0  0  0  0  0  0  0  0  0  0
    0.3489    1.0929    3.0246 C   0  0  0  0  0  0  0  0  0  0  0  0
    0.0365    4.2309    1.6188 O   0  0  0  0  0  0  0  0  0  0  0  0
   -5.1976   -1.6232    5.7614 O   0  0  0  0  0  0  0  0  0  0  0  0
   -5.2708   -0.4903    7.6591 O   0  0  0  0  0  0  0  0  0  0  0  0
    0.5210    0.5657    4.0941 O   0  0  0  0  0  0  0  0  0  0  0  0
    1.1942    2.0267    2.5811 O   0  0  0  0  0  0  0  0  0  0  0  0
   -1.2113    6.0277    7.9368 O   0  0  0  0  0  0  0  0  0  0  0  0
   -2.7263    6.9716    9.2290 O   0  0  0  0  0  0  0  0  0  0  0  0
    5.1564   -2.5294    5.4448 H   0  0  0  0  0  0  0  0  0  0  0  0
    7.3526   -4.0126    4.2324 H   0  0  0  0  0  0  0  0  0  0  0  0
    5.9675   -3.7924    2.1969 H   0  0  0  0  0  0  0  0  0  0  0  0
    4.8717   -2.6835    3.0218 H   0  0  0  0  0  0  0  0  0  0  0  0
    4.1790   -4.4764    4.5822 H   0  0  0  0  0  0  0  0  0  0  0  0
    5.3514   -5.5868    3.8553 H   0  0  0  0  0  0  0  0  0  0  0  0
    2.7495   -6.0838    4.0212 H   0  0  0  0  0  0  0  0  0  0  0  0
    7.0821   -0.1415    3.1301 H   0  0  0  0  0  0  0  0  0  0  0  0
    7.5811   -4.8916    7.5398 H   0  0  0  0  0  0  0  0  0  0  0  0
    8.5106   -2.6348    5.8965 H   0  0  0  0  0  0  0  0  0  0  0  0
   10.3214   -2.4982    7.5853 H   0  0  0  0  0  0  0  0  0  0  0  0
    9.6187   -3.8640    8.4524 H   0  0  0  0  0  0  0  0  0  0  0  0
    8.9939   -1.7392    9.5231 H   0  0  0  0  0  0  0  0  0  0  0  0
    7.5577   -2.5475    8.8963 H   0  0  0  0  0  0  0  0  0  0  0  0
    7.4838   -1.0638    6.9610 H   0  0  0  0  0  0  0  0  0  0  0  0
    9.0442   -0.3533    7.3869 H   0  0  0  0  0  0  0  0  0  0  0  0
    8.0789    0.7551    9.3273 H   0  0  0  0  0  0  0  0  0  0  0  0
    6.5834   -0.1790    9.1892 H   0  0  0  0  0  0  0  0  0  0  0  0
    7.5600    1.8152    7.2279 H   0  0  0  0  0  0  0  0  0  0  0  0
    9.7411   -3.1858    4.2907 H   0  0  0  0  0  0  0  0  0  0  0  0
    4.6747    0.7781    9.0182 H   0  0  0  0  0  0  0  0  0  0  0  0
    5.2193   -1.2914    7.6129 H   0  0  0  0  0  0  0  0  0  0  0  0
    3.5845   -1.2317    8.2469 H   0  0  0  0  0  0  0  0  0  0  0  0
    2.6520    1.0815    6.9620 H   0  0  0  0  0  0  0  0  0  0  0  0
    4.4603    0.7501    5.1584 H   0  0  0  0  0  0  0  0  0  0  0  0
    2.5310   -2.7852    6.3589 H   0  0  0  0  0  0  0  0  0  0  0  0
    1.3757   -3.3848    3.6523 H   0  0  0  0  0  0  0  0  0  0  0  0
    1.3779   -2.5483    1.3350 H   0  0  0  0  0  0  0  0  0  0  0  0
    2.6024   -0.5222    0.7240 H   0  0  0  0  0  0  0  0  0  0  0  0
    3.8743    0.7576    2.4197 H   0  0  0  0  0  0  0  0  0  0  0  0
    1.0308    3.0896    8.4058 H   0  0  0  0  0  0  0  0  0  0  0  0
    0.4132    3.4988    6.0688 H   0  0  0  0  0  0  0  0  0  0  0  0
    1.1629    1.9289    6.1702 H   0  0  0  0  0  0  0  0  0  0  0  0
    2.1553    3.0606    4.2759 H   0  0  0  0  0  0  0  0  0  0  0  0
    3.3795    3.0076    5.5348 H   0  0  0  0  0  0  0  0  0  0  0  0
    3.4385    5.2011    4.6139 H   0  0  0  0  0  0  0  0  0  0  0  0
    2.9249    6.5269    6.7042 H   0  0  0  0  0  0  0  0  0  0  0  0
    3.9121    5.0800    6.9159 H   0  0  0  0  0  0  0  0  0  0  0  0
    0.9669    5.3746    7.6350 H   0  0  0  0  0  0  0  0  0  0  0  0
    2.3450    5.1926    8.7212 H   0  0  0  0  0  0  0  0  0  0  0  0
    0.4834    5.5694    5.2726 H   0  0  0  0  0  0  0  0  0  0  0  0
    1.5897    6.7584    4.5760 H   0  0  0  0  0  0  0  0  0  0  0  0
    1.9415    4.8051    2.8579 H   0  0  0  0  0  0  0  0  0  0  0  0
   -3.9351    0.4091    3.1415 H   0  0  0  0  0  0  0  0  0  0  0  0
   -2.6809   -0.8179    2.9336 H   0  0  0  0  0  0  0  0  0  0  0  0
   -1.5472    0.3573    5.0021 H   0  0  0  0  0  0  0  0  0  0  0  0
   -2.7711   -0.8842    5.2139 H   0  0  0  0  0  0  0  0  0  0  0  0
   -2.8564    0.3902    7.5436 H   0  0  0  0  0  0  0  0  0  0  0  0
   -1.7470    1.5556    6.8006 H   0  0  0  0  0  0  0  0  0  0  0  0
   -3.1037    2.2175    8.8290 H   0  0  0  0  0  0  0  0  0  0  0  0
   -4.5089    2.3935    7.7838 H   0  0  0  0  0  0  0  0  0  0  0  0
   -3.7286    3.4783    5.5907 H   0  0  0  0  0  0  0  0  0  0  0  0
   -4.1620    5.0193    6.3276 H   0  0  0  0  0  0  0  0  0  0  0  0
   -1.2603    4.6918    6.0041 H   0  0  0  0  0  0  0  0  0  0  0  0
   -2.2754    6.0421    5.4745 H   0  0  0  0  0  0  0  0  0  0  0  0
   -0.6594    3.0085    3.9114 H   0  0  0  0  0  0  0  0  0  0  0  0
   -2.1341    2.6122    4.7829 H   0  0  0  0  0  0  0  0  0  0  0  0
   -1.9884    3.0176    1.7731 H   0  0  0  0  0  0  0  0  0  0  0  0
   -3.4539    2.6754    2.7055 H   0  0  0  0  0  0  0  0  0  0  0  0
   -5.1833    0.6880    4.6447 H   0  0  0  0  0  0  0  0  0  0  0  0
   -5.3433    1.6153    6.1363 H   0  0  0  0  0  0  0  0  0  0  0  0
   -0.6230    1.2190    1.1112 H   0  0  0  0  0  0  0  0  0  0  0  0
   -0.7675   -0.3470    1.9433 H   0  0  0  0  0  0  0  0  0  0  0  0
   -2.8744    4.1963    9.5128 H   0  0  0  0  0  0  0  0  0  0  0  0
   -4.1936    5.0082    8.6325 H   0  0  0  0  0  0  0  0  0  0  0  0
   -1.1953    6.3921    3.6576 H   0  0  0  0  0  0  0  0  0  0  0  0
   -1.9601    5.5920    2.2699 H   0  0  0  0  0  0  0  0  0  0  0  0
   -5.0570   -1.4909    4.8144 H   0  0  0  0  0  0  0  0  0  0  0  0
    0.8064    2.6302    1.9005 H   0  0  0  0  0  0  0  0  0  0  0  0
   -3.5656    6.7822    9.6690 H   0  0  0  0  0  0  0  0  0  0  0  0
  1  3  1  0  0  0  0
  1  9  1  0  0  0  0
  1 10  1  0  0  0  0
  2  3  1  0  0  0  0
  2 11  1  0  0  0  0
  2 74  1  0  0  0  0
  3  4  1  0  0  0  0
  3 75  1  0  0  0  0
  4  5  1  0  0  0  0
  4 76  1  0  0  0  0
  4 77  1  0  0  0  0
  5  6  1  0  0  0  0
  5 78  1  0  0  0  0
  5 79  1  0  0  0  0
  6  7  1  0  0  0  0
  6  8  1  0  0  0  0
  8 80  1  0  0  0  0
 10 81  1  0  0  0  0
 11 12  1  0  0  0  0
 11 13  1  0  0  0  0
 12 14  1  0  0  0  0
 12 82  1  0  0  0  0
 14 15  1  0  0  0  0
 14 20  1  0  0  0  0
 14 83  1  0  0  0  0
 15 16  1  0  0  0  0
 15 84  1  0  0  0  0
 15 85  1  0  0  0  0
 16 17  1  0  0  0  0
 16 86  1  0  0  0  0
 16 87  1  0  0  0  0
 17 18  1  0  0  0  0
 17 88  1  0  0  0  0
 17 89  1  0  0  0  0
 18 19  1  0  0  0  0
 18 90  1  0  0  0  0
 18 91  1  0  0  0  0
 19 23  1  0  0  0  0
 19 92  1  0  0  0  0
 20 21  1  0  0  0  0
 20 22  1  0  0  0  0
 22 93  1  0  0  0  0
 23 24  1  0  0  0  0
 23 26  1  0  0  0  0
 24 25  1  0  0  0  0
 24 27  1  0  0  0  0
 24 94  1  0  0  0  0
 25 29  1  0  0  0  0
 25 95  1  0  0  0  0
 25 96  1  0  0  0  0
 27 37  1  0  0  0  0
 27 97  1  0  0  0  0
 28 29  1  0  0  0  0
 28 36  1  0  0  0  0
 28 98  1  0  0  0  0
 29 30  1  0  0  0  0
 30 31  1  0  0  0  0
 30 99  1  0  0  0  0
 31 32  1  0  0  0  0
 31 36  1  0  0  0  0
 32 33  1  0  0  0  0
 32100  1  0  0  0  0
 33 34  1  0  0  0  0
 33101  1  0  0  0  0
 34 35  1  0  0  0  0
 34102  1  0  0  0  0
 35 36  1  0  0  0  0
 35103  1  0  0  0  0
 37 38  1  0  0  0  0
 37 39  1  0  0  0  0
 39 40  1  0  0  0  0
 39 44  1  0  0  0  0
 39104  1  0  0  0  0
 40 41  1  0  0  0  0
 40105  1  0  0  0  0
 40106  1  0  0  0  0
 41 42  1  0  0  0  0
 41107  1  0  0  0  0
 41108  1  0  0  0  0
 42 43  1  0  0  0  0
 42 45  1  0  0  0  0
 42109  1  0  0  0  0
 43 44  1  0  0  0  0
 43110  1  0  0  0  0
 43111  1  0  0  0  0
 44112  1  0  0  0  0
 44113  1  0  0  0  0
 45 46  1  0  0  0  0
 45114  1  0  0  0  0
 45115  1  0  0  0  0
 46 63  1  0  0  0  0
 46116  1  0  0  0  0
 47 56  1  0  0  0  0
 47 57  1  0  0  0  0
 47 62  1  0  0  0  0
 48 51  1  0  0  0  0
 48 58  1  0  0  0  0
 48 60  1  0  0  0  0
 49 52  1  0  0  0  0
 49 53  1  0  0  0  0
 49 59  1  0  0  0  0
 50 54  1  0  0  0  0
 50 55  1  0  0  0  0
 50 61  1  0  0  0  0
 51 52  1  0  0  0  0
 51117  1  0  0  0  0
 51118  1  0  0  0  0
 52119  1  0  0  0  0
 52120  1  0  0  0  0
 53 54  1  0  0  0  0
 53121  1  0  0  0  0
 53122  1  0  0  0  0
 54123  1  0  0  0  0
 54124  1  0  0  0  0
 55 56  1  0  0  0  0
 55125  1  0  0  0  0
 55126  1  0  0  0  0
 56127  1  0  0  0  0
 56128  1  0  0  0  0
 57 58  1  0  0  0  0
 57129  1  0  0  0  0
 57130  1  0  0  0  0
 58131  1  0  0  0  0
 58132  1  0  0  0  0
 59 65  1  0  0  0  0
 59133  1  0  0  0  0
 59134  1  0  0  0  0
 60 66  1  0  0  0  0
 60135  1  0  0  0  0
 60136  1  0  0  0  0
 61 64  1  0  0  0  0
 61137  1  0  0  0  0
 61138  1  0  0  0  0
 62 63  1  0  0  0  0
 62139  1  0  0  0  0
 62140  1  0  0  0  0
 63 67  1  0  0  0  0
 64 72  1  0  0  0  0
 64 73  1  0  0  0  0
 65 68  1  0  0  0  0
 65 69  1  0  0  0  0
 66 70  1  0  0  0  0
 66 71  1  0  0  0  0
 68141  1  0  0  0  0
 71142  1  0  0  0  0
 73143  1  0  0  0  0
M  END
$$$$
