REMARK WARNING: 32 MAX_TORS EXCEEDED!!!
REMARK  33 active torsions:
REMARK  status: ('A' for Active; 'I' for Inactive)
REMARK    1  A    between atoms: C_1  and  C_3 
REMARK    2  A    between atoms: C_1  and  O_10 
REMARK    3  A    between atoms: N_2  and  C_3 
REMARK       I    between atoms: N_2  and  C_11 
REMARK    4  A    between atoms: C_3  and  C_4 
REMARK    5  A    between atoms: C_4  and  C_5 
REMARK    6  A    between atoms: C_5  and  C_6 
REMARK    7  A    between atoms: C_6  and  O_8 
REMARK       I    between atoms: C_11  and  N_12 
REMARK    8  A    between atoms: N_12  and  C_14 
REMARK    9  A    between atoms: C_14  and  C_15 
REMARK   10  A    between atoms: C_14  and  C_20 
REMARK   11  A    between atoms: C_15  and  C_16 
REMARK   12  A    between atoms: C_16  and  C_17 
REMARK   13  A    between atoms: C_17  and  C_18 
REMARK   14  A    between atoms: C_18  and  N_19 
REMARK       I    between atoms: N_19  and  C_23 
REMARK   15  A    between atoms: C_20  and  O_22 
REMARK   16  A    between atoms: C_23  and  C_24 
REMARK   17  A    between atoms: C_24  and  C_25 
REMARK   18  A    between atoms: C_24  and  N_27 
REMARK   19  A    between atoms: C_25  and  C_29 
REMARK       I    between atoms: N_27  and  C_37 
REMARK   20  A    between atoms: C_37  and  C_39 
REMARK   21  A    between atoms: C_42  and  C_45 
REMARK   22  A    between atoms: C_45  and  N_46 
REMARK       I    between atoms: N_46  and  C_63 
REMARK   23  A    between atoms: N_47  and  C_62 
REMARK   24  A    between atoms: N_48  and  C_60 
REMARK   25  A    between atoms: N_49  and  C_59 
REMARK   26  A    between atoms: N_50  and  C_61 
REMARK   27  A    between atoms: C_59  and  C_65 
REMARK   28  A    between atoms: C_60  and  C_66 
REMARK   29  A    between atoms: C_61  and  C_64 
REMARK   30  A    between atoms: C_62  and  C_63 
REMARK   31  A    between atoms: C_64  and  O_73 
REMARK   32  A    between atoms: C_65  and  O_68 
REMARK   33  A    between atoms: C_66  and  O_71 
ROOT
HETATM    1  C   UNK     1       7.390  -1.932   3.715  1.00  0.00     0.163 C 
HETATM    2  O   UNK     9       8.597  -1.826   3.765  1.00  0.00    -0.648 OA
ENDROOT
BRANCH   1   3
HETATM    3  C   UNK     3       6.638  -3.186   4.154  1.00  0.00     0.184 C 
BRANCH   3   4
HETATM    4  N   UNK     2       6.107  -2.896   5.480  1.00  0.00    -0.329 N 
HETATM    5  C   UNK    11       6.255  -3.769   6.551  1.00  0.00     0.317 C 
HETATM    6  N   UNK    12       7.517  -4.221   6.785  1.00  0.00    -0.329 N 
HETATM    7  O   UNK    13       5.308  -4.083   7.244  1.00  0.00    -0.247 OA
HETATM    8  H   UNK    82       7.581  -4.892   7.540  1.00  0.00     0.165 HD
HETATM    9  H   UNK    74       5.156  -2.529   5.445  1.00  0.00     0.165 HD
BRANCH   6  10
HETATM   10  C   UNK    14       8.743  -3.492   6.525  1.00  0.00     0.184 C 
BRANCH  10  11
HETATM   11  C   UNK    15       9.382  -2.997   7.833  1.00  0.00     0.036 C 
BRANCH  11  12
HETATM   12  C   UNK    16       8.478  -2.035   8.608  1.00  0.00     0.004 C 
BRANCH  12  13
HETATM   13  C   UNK    17       8.130  -0.788   7.798  1.00  0.00     0.020 C 
BRANCH  13  14
HETATM   14  C   UNK    18       7.393   0.278   8.622  1.00  0.00     0.122 C 
BRANCH  14  15
HETATM   15  N   UNK    19       6.860   1.286   7.735  1.00  0.00    -0.359 N 
HETATM   16  C   UNK    23       5.629   1.386   7.206  1.00  0.00     0.240 C 
HETATM   17  O   UNK    26       5.446   2.042   6.191  1.00  0.00    -0.271 OA
HETATM   18  H   UNK    92       7.560   1.815   7.228  1.00  0.00     0.162 HD
BRANCH  16  19
HETATM   19  C   UNK    24       4.466   0.706   7.944  1.00  0.00     0.182 C 
BRANCH  19  20
HETATM   20  C   UNK    25       4.267  -0.760   7.537  1.00  0.00     0.091 C 
BRANCH  20  21
HETATM   21  C   UNK    29       3.696  -0.955   6.165  1.00  0.00     0.013 A 
HETATM   22  N   UNK    28       3.975  -0.135   5.100  1.00  0.00    -0.359 N 
HETATM   23  C   UNK    36       3.348  -0.618   3.988  1.00  0.00     0.042 A 
HETATM   24  H   UNK    98       4.460   0.750   5.158  1.00  0.00     0.166 HD
HETATM   25  C   UNK    31       2.655  -1.798   4.355  1.00  0.00    -0.008 A 
HETATM   26  C   UNK    35       3.346  -0.146   2.683  1.00  0.00     0.030 A 
HETATM   27  C   UNK    30       2.901  -1.989   5.743  1.00  0.00     0.038 A 
HETATM   28  C   UNK    32       1.929  -2.495   3.389  1.00  0.00     0.014 A 
HETATM   29  C   UNK    33       1.926  -2.018   2.099  1.00  0.00     0.001 A 
HETATM   30  C   UNK    34       2.629  -0.861   1.749  1.00  0.00     0.002 A 
ENDBRANCH  20  21
ENDBRANCH  19  20
BRANCH  19  31
HETATM   31  N   UNK    27       3.247   1.438   7.692  1.00  0.00    -0.347 N 
HETATM   32  C   UNK    37       3.088   2.708   8.140  1.00  0.00     0.222 C 
HETATM   33  O   UNK    38       3.885   3.213   8.905  1.00  0.00    -0.273 OA
HETATM   34  H   UNK    97       2.652   1.082   6.962  1.00  0.00     0.163 HD
BRANCH  32  35
HETATM   35  C   UNK    39       1.800   3.391   7.683  1.00  0.00     0.078 C 
HETATM   36  C   UNK    40       1.360   2.998   6.274  1.00  0.00     0.014 C 
HETATM   37  C   UNK    41       2.414   3.438   5.264  1.00  0.00     0.007 C 
HETATM   38  C   UNK    42       2.579   4.960   5.253  1.00  0.00     0.003 C 
HETATM   39  C   UNK    43       2.909   5.435   6.672  1.00  0.00     0.007 C 
HETATM   40  C   UNK    44       1.949   4.916   7.743  1.00  0.00     0.014 C 
BRANCH  38  41
HETATM   41  C   UNK    45       1.365   5.686   4.647  1.00  0.00     0.127 C 
BRANCH  41  42
HETATM   42  N   UNK    46       1.111   5.154   3.323  1.00  0.00    -0.359 N 
HETATM   43  C   UNK    63      -0.020   4.884   2.663  1.00  0.00     0.246 C 
HETATM   44  O   UNK    67       0.036   4.231   1.619  1.00  0.00    -0.272 OA
HETATM   45  H   UNK   116       1.942   4.805   2.858  1.00  0.00     0.162 HD
BRANCH  43  46
HETATM   46  C   UNK    62      -1.356   5.428   3.172  1.00  0.00     0.374 C 
BRANCH  46  47
HETATM   47  N   UNK    47      -2.111   4.541   4.056  1.00  0.00     0.100 N 
HETATM   48  C   UNK    56      -2.169   4.957   5.447  1.00  0.00     0.303 C 
HETATM   49  C   UNK    55      -3.344   4.296   6.196  1.00  0.00     0.303 C 
HETATM   50  N   UNK    50      -2.905   3.764   7.483  1.00  0.00     0.101 N 
HETATM   51  C   UNK    54      -3.410   2.435   7.803  1.00  0.00     0.303 C 
HETATM   52  C   UNK    53      -2.802   1.315   6.949  1.00  0.00     0.303 C 
HETATM   53  N   UNK    49      -3.391   1.109   5.625  1.00  0.00     0.101 N 
HETATM   54  C   UNK    52      -2.606   0.143   4.851  1.00  0.00     0.292 C 
HETATM   55  C   UNK    51      -2.879   0.184   3.326  1.00  0.00     0.147 C 
HETATM   56  N   UNK    48      -2.136   1.101   2.503  1.00  0.00    -0.400 N 
HETATM   57  C   UNK    58      -2.374   2.516   2.664  1.00  0.00     0.147 C 
HETATM   58  C   UNK    57      -1.749   3.142   3.920  1.00  0.00     0.292 C 
BRANCH  50  59
HETATM   59  C   UNK    61      -3.131   4.691   8.568  1.00  0.00     0.381 C 
BRANCH  59  60
HETATM   60  C   UNK    64      -2.253   5.935   8.513  1.00  0.00     0.169 C 
HETATM   61  O   UNK    72      -1.211   6.028   7.937  1.00  0.00    -0.649 OA
BRANCH  60  62
HETATM   62  O   UNK    73      -2.726   6.972   9.229  1.00  0.00    -0.775 OA
HETATM   63  H   UNK   143      -3.566   6.782   9.669  1.00  0.00     0.167 HD
ENDBRANCH  60  62
ENDBRANCH  59  60
ENDBRANCH  50  59
BRANCH  53  64
HETATM   64  C   UNK    59      -4.814   0.782   5.669  1.00  0.00     0.381 C 
BRANCH  64  65
HETATM   65  C   UNK    65      -5.129  -0.481   6.469  1.00  0.00     0.169 C 
HETATM   66  O   UNK    69      -5.271  -0.490   7.659  1.00  0.00    -0.649 OA
BRANCH  65  67
HETATM   67  O   UNK    68      -5.198  -1.623   5.761  1.00  0.00    -0.775 OA
HETATM   68  H   UNK   141      -5.057  -1.491   4.814  1.00  0.00     0.167 HD
ENDBRANCH  65  67
ENDBRANCH  64  65
ENDBRANCH  53  64
BRANCH  56  69
HETATM   69  C   UNK    60      -0.803   0.738   2.081  1.00  0.00     0.227 C 
BRANCH  69  70
HETATM   70  C   UNK    66       0.349   1.093   3.025  1.00  0.00     0.157 C 
HETATM   71  O   UNK    70       0.521   0.566   4.094  1.00  0.00    -0.649 OA
BRANCH  70  72
HETATM   72  O   UNK    71       1.194   2.027   2.581  1.00  0.00    -0.775 OA
HETATM   73  H   UNK   142       0.806   2.630   1.900  1.00  0.00     0.167 HD
ENDBRANCH  70  72
ENDBRANCH  69  70
ENDBRANCH  56  69
ENDBRANCH  46  47
ENDBRANCH  43  46
ENDBRANCH  41  42
ENDBRANCH  38  41
ENDBRANCH  32  35
ENDBRANCH  19  31
ENDBRANCH  16  19
ENDBRANCH  14  15
ENDBRANCH  13  14
ENDBRANCH  12  13
ENDBRANCH  11  12
ENDBRANCH  10  11
BRANCH  10  74
HETATM   74  C   UNK    20       9.734  -4.425   5.802  1.00  0.00     0.163 C 
HETATM   75  O   UNK    21      10.100  -5.457   6.290  1.00  0.00    -0.648 OA
BRANCH  74  76
HETATM   76  O   UNK    22      10.149  -4.022   4.606  1.00  0.00    -0.775 OA
HETATM   77  H   UNK    93       9.741  -3.186   4.291  1.00  0.00     0.167 HD
ENDBRANCH  74  76
ENDBRANCH  10  74
ENDBRANCH   6  10
ENDBRANCH   3   4
BRANCH   3  78
HETATM   78  C   UNK     4       5.527  -3.544   3.163  1.00  0.00     0.046 C 
BRANCH  78  79
HETATM   79  C   UNK     5       4.700  -4.729   3.656  1.00  0.00     0.112 C 
BRANCH  79  80
HETATM   80  C   UNK     6       3.690  -5.159   2.604  1.00  0.00     0.139 C 
HETATM   81  O   UNK     7       3.761  -4.872   1.446  1.00  0.00    -0.650 OA
BRANCH  80  82
HETATM   82  O   UNK     8       2.698  -5.937   3.067  1.00  0.00    -0.776 OA
HETATM   83  H   UNK    80       2.749  -6.084   4.021  1.00  0.00     0.167 HD
ENDBRANCH  80  82
ENDBRANCH  79  80
ENDBRANCH  78  79
ENDBRANCH   3  78
ENDBRANCH   1   3
BRANCH   1  84
HETATM   84  O   UNK    10       6.593  -0.950   3.359  1.00  0.00    -0.775 OA
HETATM   85  H   UNK    81       7.082  -0.142   3.130  1.00  0.00     0.167 HD
ENDBRANCH   1  84
TORSDOF 33
