MODEL 1
REMARK VINA RESULT:    -8.637      0.000      0.000
REMARK INTER + INTRA:         -30.323
REMARK INTER:                 -25.417
REMARK INTRA:                  -4.906
REMARK UNBOUND:                -6.538
REMARK WARNING: 32 MAX_TORS EXCEEDED!!!
REMARK  33 active torsions:
REMARK  status: ('A' for Active; 'I' for Inactive)
REMARK    1  A    between atoms: C_1  and  C_3 
REMARK    2  A    between atoms: C_1  and  O_10 
REMARK    3  A    between atoms: N_2  and  C_3 
REMARK       I    between atoms: N_2  and  C_11 
REMARK    4  A    between atoms: C_3  and  C_4 
REMARK    5  A    between atoms: C_4  and  C_5 
REMARK    6  A    between atoms: C_5  and  C_6 
REMARK    7  A    between atoms: C_6  and  O_8 
REMARK       I    between atoms: C_11  and  N_12 
REMARK    8  A    between atoms: N_12  and  C_14 
REMARK    9  A    between atoms: C_14  and  C_15 
REMARK   10  A    between atoms: C_14  and  C_20 
REMARK   11  A    between atoms: C_15  and  C_16 
REMARK   12  A    between atoms: C_16  and  C_17 
REMARK   13  A    between atoms: C_17  and  C_18 
REMARK   14  A    between atoms: C_18  and  N_19 
REMARK       I    between atoms: N_19  and  C_23 
REMARK   15  A    between atoms: C_20  and  O_22 
REMARK   16  A    between atoms: C_23  and  C_24 
REMARK   17  A    between atoms: C_24  and  C_25 
REMARK   18  A    between atoms: C_24  and  N_27 
REMARK   19  A    between atoms: C_25  and  C_29 
REMARK       I    between atoms: N_27  and  C_37 
REMARK   20  A    between atoms: C_37  and  C_39 
REMARK   21  A    between atoms: C_42  and  C_45 
REMARK   22  A    between atoms: C_45  and  N_46 
REMARK       I    between atoms: N_46  and  C_63 
REMARK   23  A    between atoms: N_47  and  C_62 
REMARK   24  A    between atoms: N_48  and  C_60 
REMARK   25  A    between atoms: N_49  and  C_59 
REMARK   26  A    between atoms: N_50  and  C_61 
REMARK   27  A    between atoms: C_59  and  C_65 
REMARK   28  A    between atoms: C_60  and  C_66 
REMARK   29  A    between atoms: C_61  and  C_64 
REMARK   30  A    between atoms: C_62  and  C_63 
REMARK   31  A    between atoms: C_64  and  O_73 
REMARK   32  A    between atoms: C_65  and  O_68 
REMARK   33  A    between atoms: C_66  and  O_71 
ROOT
HETATM    1  C   UNK     1      25.405  54.244  42.653  1.00  0.00     0.163 C 
HETATM    2  O   UNK     9      24.492  53.468  42.462  1.00  0.00    -0.648 OA
ENDROOT
BRANCH   1   3
HETATM    3  C   UNK     3      25.604  54.999  43.964  1.00  0.00     0.184 C 
BRANCH   3   4
HETATM    4  N   UNK     2      26.010  54.003  44.947  1.00  0.00    -0.329 N 
HETATM    5  C   UNK    11      25.600  54.053  46.274  1.00  0.00     0.317 C 
HETATM    6  N   UNK    12      24.264  54.206  46.483  1.00  0.00    -0.329 N 
HETATM    7  O   UNK    13      26.396  53.940  47.185  1.00  0.00    -0.247 OA
HETATM    8  H   UNK    82      24.006  54.288  47.458  1.00  0.00     0.165 HD
HETATM    9  H   UNK    74      27.004  53.781  44.887  1.00  0.00     0.165 HD
BRANCH   6  10
HETATM   10  C   UNK    14      23.207  53.713  45.622  1.00  0.00     0.184 C 
BRANCH  10  11
HETATM   11  C   UNK    15      22.917  52.228  45.895  1.00  0.00     0.036 C 
BRANCH  11  12
HETATM   12  C   UNK    16      22.707  51.419  44.613  1.00  0.00     0.004 C 
BRANCH  12  13
HETATM   13  C   UNK    17      21.514  50.471  44.715  1.00  0.00     0.020 C 
BRANCH  13  14
HETATM   14  C   UNK    18      21.920  49.023  45.023  1.00  0.00     0.122 C 
BRANCH  14  15
HETATM   15  N   UNK    19      23.361  48.922  45.033  1.00  0.00    -0.359 N 
HETATM   16  C   UNK    23      24.180  48.370  44.122  1.00  0.00     0.240 C 
HETATM   17  O   UNK    26      25.303  48.010  44.440  1.00  0.00    -0.271 OA
HETATM   18  H   UNK    92      23.785  49.016  45.949  1.00  0.00     0.162 HD
BRANCH  16  19
HETATM   19  C   UNK    24      23.683  48.264  42.672  1.00  0.00     0.182 C 
BRANCH  19  20
HETATM   20  C   UNK    25      23.553  46.816  42.182  1.00  0.00     0.091 C 
BRANCH  20  21
HETATM   21  C   UNK    29      22.902  45.883  43.158  1.00  0.00     0.013 A 
HETATM   22  N   UNK    28      21.547  45.829  43.373  1.00  0.00    -0.359 N 
HETATM   23  C   UNK    36      21.276  44.839  44.273  1.00  0.00     0.042 A 
HETATM   24  H   UNK    98      20.875  46.496  43.020  1.00  0.00     0.166 HD
HETATM   25  C   UNK    31      22.503  44.230  44.635  1.00  0.00    -0.008 A 
HETATM   26  C   UNK    35      20.064  44.400  44.786  1.00  0.00     0.030 A 
HETATM   27  C   UNK    30      23.517  44.911  43.904  1.00  0.00     0.038 A 
HETATM   28  C   UNK    32      22.502  43.176  45.549  1.00  0.00     0.014 A 
HETATM   29  C   UNK    33      21.298  42.750  46.057  1.00  0.00     0.001 A 
HETATM   30  C   UNK    34      20.093  43.350  45.678  1.00  0.00     0.002 A 
ENDBRANCH  20  21
ENDBRANCH  19  20
BRANCH  19  31
HETATM   31  N   UNK    27      24.587  48.979  41.803  1.00  0.00    -0.347 N 
HETATM   32  C   UNK    37      25.551  48.328  41.107  1.00  0.00     0.222 C 
HETATM   33  O   UNK    38      25.798  47.156  41.314  1.00  0.00    -0.273 OA
HETATM   34  H   UNK    97      24.309  49.908  41.531  1.00  0.00     0.163 HD
BRANCH  32  35
HETATM   35  C   UNK    39      26.342  49.203  40.136  1.00  0.00     0.078 C 
HETATM   36  C   UNK    40      27.790  48.758  39.944  1.00  0.00     0.014 C 
HETATM   37  C   UNK    41      28.542  48.867  41.266  1.00  0.00     0.007 C 
HETATM   38  C   UNK    42      28.599  50.315  41.760  1.00  0.00     0.003 C 
HETATM   39  C   UNK    43      27.172  50.862  41.864  1.00  0.00     0.007 C 
HETATM   40  C   UNK    44      26.334  50.664  40.600  1.00  0.00     0.014 C 
BRANCH  38  41
HETATM   41  C   UNK    45      29.518  51.201  40.902  1.00  0.00     0.127 C 
BRANCH  41  42
HETATM   42  N   UNK    46      29.487  52.554  41.420  1.00  0.00    -0.359 N 
HETATM   43  C   UNK    63      30.134  53.147  42.428  1.00  0.00     0.246 C 
HETATM   44  O   UNK    67      29.767  54.263  42.803  1.00  0.00    -0.272 OA
HETATM   45  H   UNK   116      28.745  53.124  41.027  1.00  0.00     0.162 HD
BRANCH  43  46
HETATM   46  C   UNK    62      31.348  52.470  43.067  1.00  0.00     0.374 C 
BRANCH  46  47
HETATM   47  N   UNK    47      31.506  52.671  44.507  1.00  0.00     0.100 N 
HETATM   48  C   UNK    56      32.608  53.535  44.894  1.00  0.00     0.303 C 
HETATM   49  C   UNK    55      32.426  54.096  46.319  1.00  0.00     0.303 C 
HETATM   50  N   UNK    50      33.659  53.964  47.090  1.00  0.00     0.101 N 
HETATM   51  C   UNK    54      33.482  53.488  48.456  1.00  0.00     0.303 C 
HETATM   52  C   UNK    53      33.072  52.013  48.553  1.00  0.00     0.303 C 
HETATM   53  N   UNK    49      31.650  51.716  48.373  1.00  0.00     0.101 N 
HETATM   54  C   UNK    52      31.425  50.269  48.308  1.00  0.00     0.292 C 
HETATM   55  C   UNK    51      30.059  49.869  47.695  1.00  0.00     0.147 C 
HETATM   56  N   UNK    48      29.944  49.720  46.269  1.00  0.00    -0.400 N 
HETATM   57  C   UNK    58      30.059  50.899  45.444  1.00  0.00     0.147 C 
HETATM   58  C   UNK    57      31.488  51.436  45.270  1.00  0.00     0.292 C 
BRANCH  50  59
HETATM   59  C   UNK    61      34.465  55.162  47.048  1.00  0.00     0.381 C 
BRANCH  59  60
HETATM   60  C   UNK    64      35.740  55.081  47.878  1.00  0.00     0.169 C 
HETATM   61  O   UNK    72      36.698  54.416  47.620  1.00  0.00    -0.649 OA
BRANCH  60  62
HETATM   62  O   UNK    73      35.706  55.811  49.008  1.00  0.00    -0.775 OA
HETATM   63  H   UNK   143      36.564  55.871  49.451  1.00  0.00     0.167 HD
ENDBRANCH  60  62
ENDBRANCH  59  60
ENDBRANCH  50  59
BRANCH  53  64
HETATM   64  C   UNK    59      30.792  52.382  49.349  1.00  0.00     0.381 C 
BRANCH  64  65
HETATM   65  C   UNK    65      29.652  53.182  48.720  1.00  0.00     0.169 C 
HETATM   66  O   UNK    69      29.622  53.487  47.561  1.00  0.00    -0.649 OA
BRANCH  65  67
HETATM   67  O   UNK    68      28.678  53.577  49.559  1.00  0.00    -0.775 OA
HETATM   68  H   UNK   141      27.803  53.256  49.302  1.00  0.00     0.167 HD
ENDBRANCH  65  67
ENDBRANCH  64  65
ENDBRANCH  53  64
BRANCH  56  69
HETATM   69  C   UNK    60      30.385  48.488  45.657  1.00  0.00     0.227 C 
BRANCH  69  70
HETATM   70  C   UNK    66      29.345  47.375  45.500  1.00  0.00     0.157 C 
HETATM   71  O   UNK    70      28.409  47.441  44.746  1.00  0.00    -0.649 OA
BRANCH  70  72
HETATM   72  O   UNK    71      29.547  46.285  46.244  1.00  0.00    -0.775 OA
HETATM   73  H   UNK   142      28.715  45.829  46.524  1.00  0.00     0.167 HD
ENDBRANCH  70  72
ENDBRANCH  69  70
ENDBRANCH  56  69
ENDBRANCH  46  47
ENDBRANCH  43  46
ENDBRANCH  41  42
ENDBRANCH  38  41
ENDBRANCH  32  35
ENDBRANCH  19  31
ENDBRANCH  16  19
ENDBRANCH  14  15
ENDBRANCH  13  14
ENDBRANCH  12  13
ENDBRANCH  11  12
ENDBRANCH  10  11
BRANCH  10  74
HETATM   74  C   UNK    20      21.928  54.532  45.883  1.00  0.00     0.163 C 
HETATM   75  O   UNK    21      21.004  54.081  46.499  1.00  0.00    -0.648 OA
BRANCH  74  76
HETATM   76  O   UNK    22      21.916  55.768  45.394  1.00  0.00    -0.775 OA
HETATM   77  H   UNK    93      22.017  56.476  46.068  1.00  0.00     0.167 HD
ENDBRANCH  74  76
ENDBRANCH  10  74
ENDBRANCH   6  10
ENDBRANCH   3   4
BRANCH   3  78
HETATM   78  C   UNK     4      26.649  56.108  43.814  1.00  0.00     0.046 C 
BRANCH  78  79
HETATM   79  C   UNK     5      26.462  57.197  44.868  1.00  0.00     0.112 C 
BRANCH  79  80
HETATM   80  C   UNK     6      24.992  57.549  45.028  1.00  0.00     0.139 C 
HETATM   81  O   UNK     7      24.356  57.350  46.020  1.00  0.00    -0.650 OA
BRANCH  80  82
HETATM   82  O   UNK     8      24.442  58.151  43.960  1.00  0.00    -0.776 OA
HETATM   83  H   UNK    80      23.478  58.199  44.011  1.00  0.00     0.167 HD
ENDBRANCH  80  82
ENDBRANCH  79  80
ENDBRANCH  78  79
ENDBRANCH   3  78
ENDBRANCH   1   3
BRANCH   1  84
HETATM   84  O   UNK    10      26.368  54.454  41.784  1.00  0.00    -0.775 OA
HETATM   85  H   UNK    81      26.085  55.024  41.049  1.00  0.00     0.167 HD
ENDBRANCH   1  84
TORSDOF 33
ENDMDL
MODEL 2
REMARK VINA RESULT:    -8.594      3.139      6.333
REMARK INTER + INTRA:         -30.204
REMARK INTER:                 -25.294
REMARK INTRA:                  -4.910
REMARK UNBOUND:                -6.538
REMARK WARNING: 32 MAX_TORS EXCEEDED!!!
REMARK  33 active torsions:
REMARK  status: ('A' for Active; 'I' for Inactive)
REMARK    1  A    between atoms: C_1  and  C_3 
REMARK    2  A    between atoms: C_1  and  O_10 
REMARK    3  A    between atoms: N_2  and  C_3 
REMARK       I    between atoms: N_2  and  C_11 
REMARK    4  A    between atoms: C_3  and  C_4 
REMARK    5  A    between atoms: C_4  and  C_5 
REMARK    6  A    between atoms: C_5  and  C_6 
REMARK    7  A    between atoms: C_6  and  O_8 
REMARK       I    between atoms: C_11  and  N_12 
REMARK    8  A    between atoms: N_12  and  C_14 
REMARK    9  A    between atoms: C_14  and  C_15 
REMARK   10  A    between atoms: C_14  and  C_20 
REMARK   11  A    between atoms: C_15  and  C_16 
REMARK   12  A    between atoms: C_16  and  C_17 
REMARK   13  A    between atoms: C_17  and  C_18 
REMARK   14  A    between atoms: C_18  and  N_19 
REMARK       I    between atoms: N_19  and  C_23 
REMARK   15  A    between atoms: C_20  and  O_22 
REMARK   16  A    between atoms: C_23  and  C_24 
REMARK   17  A    between atoms: C_24  and  C_25 
REMARK   18  A    between atoms: C_24  and  N_27 
REMARK   19  A    between atoms: C_25  and  C_29 
REMARK       I    between atoms: N_27  and  C_37 
REMARK   20  A    between atoms: C_37  and  C_39 
REMARK   21  A    between atoms: C_42  and  C_45 
REMARK   22  A    between atoms: C_45  and  N_46 
REMARK       I    between atoms: N_46  and  C_63 
REMARK   23  A    between atoms: N_47  and  C_62 
REMARK   24  A    between atoms: N_48  and  C_60 
REMARK   25  A    between atoms: N_49  and  C_59 
REMARK   26  A    between atoms: N_50  and  C_61 
REMARK   27  A    between atoms: C_59  and  C_65 
REMARK   28  A    between atoms: C_60  and  C_66 
REMARK   29  A    between atoms: C_61  and  C_64 
REMARK   30  A    between atoms: C_62  and  C_63 
REMARK   31  A    between atoms: C_64  and  O_73 
REMARK   32  A    between atoms: C_65  and  O_68 
REMARK   33  A    between atoms: C_66  and  O_71 
ROOT
HETATM    1  C   UNK     1      23.779  45.024  43.147  1.00  0.00     0.163 C 
HETATM    2  O   UNK     9      24.258  44.034  42.638  1.00  0.00    -0.648 OA
ENDROOT
BRANCH   1   3
HETATM    3  C   UNK     3      22.606  44.983  44.124  1.00  0.00     0.184 C 
BRANCH   3   4
HETATM    4  N   UNK     2      21.462  45.529  43.405  1.00  0.00    -0.329 N 
HETATM    5  C   UNK    11      20.379  46.109  44.056  1.00  0.00     0.317 C 
HETATM    6  N   UNK    12      20.677  47.056  44.986  1.00  0.00    -0.329 N 
HETATM    7  O   UNK    13      19.238  45.795  43.783  1.00  0.00    -0.247 OA
HETATM    8  H   UNK    82      19.869  47.422  45.475  1.00  0.00     0.165 HD
HETATM    9  H   UNK    74      21.143  44.913  42.657  1.00  0.00     0.165 HD
BRANCH   6  10
HETATM   10  C   UNK    14      21.814  47.955  44.951  1.00  0.00     0.184 C 
BRANCH  10  11
HETATM   11  C   UNK    15      21.360  49.419  44.825  1.00  0.00     0.036 C 
BRANCH  11  12
HETATM   12  C   UNK    16      22.361  50.286  44.056  1.00  0.00     0.004 C 
BRANCH  12  13
HETATM   13  C   UNK    17      23.411  49.450  43.328  1.00  0.00     0.020 C 
BRANCH  13  14
HETATM   14  C   UNK    18      24.837  49.994  43.500  1.00  0.00     0.122 C 
BRANCH  14  15
HETATM   15  N   UNK    19      25.788  48.937  43.246  1.00  0.00    -0.359 N 
HETATM   16  C   UNK    23      26.455  48.648  42.116  1.00  0.00     0.240 C 
HETATM   17  O   UNK    26      26.902  47.526  41.933  1.00  0.00    -0.271 OA
HETATM   18  H   UNK    92      25.736  48.158  43.892  1.00  0.00     0.162 HD
BRANCH  16  19
HETATM   19  C   UNK    24      26.683  49.779  41.101  1.00  0.00     0.182 C 
BRANCH  19  20
HETATM   20  C   UNK    25      25.571  49.880  40.048  1.00  0.00     0.091 C 
BRANCH  20  21
HETATM   21  C   UNK    29      25.241  48.589  39.363  1.00  0.00     0.013 A 
HETATM   22  N   UNK    28      24.879  47.444  40.029  1.00  0.00    -0.359 N 
HETATM   23  C   UNK    36      24.588  46.470  39.118  1.00  0.00     0.042 A 
HETATM   24  H   UNK    98      24.941  47.307  41.029  1.00  0.00     0.166 HD
HETATM   25  C   UNK    31      24.758  47.019  37.823  1.00  0.00    -0.008 A 
HETATM   26  C   UNK    35      24.164  45.163  39.307  1.00  0.00     0.030 A 
HETATM   27  C   UNK    30      25.166  48.369  38.012  1.00  0.00     0.038 A 
HETATM   28  C   UNK    32      24.517  46.222  36.703  1.00  0.00     0.014 A 
HETATM   29  C   UNK    33      24.102  44.925  36.898  1.00  0.00     0.001 A 
HETATM   30  C   UNK    34      23.923  44.403  38.183  1.00  0.00     0.002 A 
ENDBRANCH  20  21
ENDBRANCH  19  20
BRANCH  19  31
HETATM   31  N   UNK    27      27.949  49.575  40.436  1.00  0.00    -0.347 N 
HETATM   32  C   UNK    37      28.733  50.625  40.087  1.00  0.00     0.222 C 
HETATM   33  O   UNK    38      28.330  51.769  40.166  1.00  0.00    -0.273 OA
HETATM   34  H   UNK    97      28.340  48.649  40.488  1.00  0.00     0.163 HD
BRANCH  32  35
HETATM   35  C   UNK    39      30.095  50.243  39.511  1.00  0.00     0.078 C 
HETATM   36  C   UNK    40      30.756  49.063  40.221  1.00  0.00     0.014 C 
HETATM   37  C   UNK    41      31.037  49.429  41.674  1.00  0.00     0.007 C 
HETATM   38  C   UNK    42      32.020  50.598  41.778  1.00  0.00     0.003 C 
HETATM   39  C   UNK    43      31.467  51.786  40.983  1.00  0.00     0.007 C 
HETATM   40  C   UNK    44      31.053  51.440  39.553  1.00  0.00     0.014 C 
BRANCH  38  41
HETATM   41  C   UNK    45      33.450  50.213  41.360  1.00  0.00     0.127 C 
BRANCH  41  42
HETATM   42  N   UNK    46      34.174  49.753  42.528  1.00  0.00    -0.359 N 
HETATM   43  C   UNK    63      34.629  50.388  43.613  1.00  0.00     0.246 C 
HETATM   44  O   UNK    67      35.408  49.802  44.368  1.00  0.00    -0.272 OA
HETATM   45  H   UNK   116      34.507  48.798  42.450  1.00  0.00     0.162 HD
BRANCH  43  46
HETATM   46  C   UNK    62      34.142  51.801  43.937  1.00  0.00     0.374 C 
BRANCH  46  47
HETATM   47  N   UNK    47      33.701  52.024  45.314  1.00  0.00     0.100 N 
HETATM   48  C   UNK    56      34.747  52.416  46.243  1.00  0.00     0.303 C 
HETATM   49  C   UNK    55      34.172  53.100  47.499  1.00  0.00     0.303 C 
HETATM   50  N   UNK    50      34.777  52.553  48.711  1.00  0.00     0.101 N 
HETATM   51  C   UNK    54      33.842  52.279  49.794  1.00  0.00     0.303 C 
HETATM   52  C   UNK    53      32.910  51.090  49.527  1.00  0.00     0.303 C 
HETATM   53  N   UNK    49      31.726  51.358  48.710  1.00  0.00     0.101 N 
HETATM   54  C   UNK    52      31.027  50.112  48.382  1.00  0.00     0.292 C 
HETATM   55  C   UNK    51      30.043  50.234  47.191  1.00  0.00     0.147 C 
HETATM   56  N   UNK    48      30.534  50.043  45.852  1.00  0.00    -0.400 N 
HETATM   57  C   UNK    58      31.441  51.024  45.306  1.00  0.00     0.147 C 
HETATM   58  C   UNK    57      32.879  50.949  45.840  1.00  0.00     0.292 C 
BRANCH  50  59
HETATM   59  C   UNK    61      35.901  53.338  49.168  1.00  0.00     0.381 C 
BRANCH  59  60
HETATM   60  C   UNK    64      35.557  54.788  49.482  1.00  0.00     0.169 C 
HETATM   61  O   UNK    72      35.712  55.717  48.747  1.00  0.00    -0.649 OA
BRANCH  60  62
HETATM   62  O   UNK    73      35.080  54.981  50.726  1.00  0.00    -0.775 OA
HETATM   63  H   UNK   143      34.489  54.276  51.023  1.00  0.00     0.167 HD
ENDBRANCH  60  62
ENDBRANCH  59  60
ENDBRANCH  50  59
BRANCH  53  64
HETATM   64  C   UNK    59      30.844  52.372  49.283  1.00  0.00     0.381 C 
BRANCH  64  65
HETATM   65  C   UNK    65      30.403  53.439  48.281  1.00  0.00     0.169 C 
HETATM   66  O   UNK    69      30.998  53.680  47.270  1.00  0.00    -0.649 OA
BRANCH  65  67
HETATM   67  O   UNK    68      29.308  54.144  48.619  1.00  0.00    -0.775 OA
HETATM   68  H   UNK   141      29.302  54.414  49.547  1.00  0.00     0.167 HD
ENDBRANCH  65  67
ENDBRANCH  64  65
ENDBRANCH  53  64
BRANCH  56  69
HETATM   69  C   UNK    60      30.700  48.697  45.354  1.00  0.00     0.227 C 
BRANCH  69  70
HETATM   70  C   UNK    66      29.483  47.771  45.423  1.00  0.00     0.157 C 
HETATM   71  O   UNK    70      28.474  47.949  44.790  1.00  0.00    -0.649 OA
BRANCH  70  72
HETATM   72  O   UNK    71      29.606  46.711  46.226  1.00  0.00    -0.775 OA
HETATM   73  H   UNK   142      29.114  46.792  47.080  1.00  0.00     0.167 HD
ENDBRANCH  70  72
ENDBRANCH  69  70
ENDBRANCH  56  69
ENDBRANCH  46  47
ENDBRANCH  43  46
ENDBRANCH  41  42
ENDBRANCH  38  41
ENDBRANCH  32  35
ENDBRANCH  19  31
ENDBRANCH  16  19
ENDBRANCH  14  15
ENDBRANCH  13  14
ENDBRANCH  12  13
ENDBRANCH  11  12
ENDBRANCH  10  11
BRANCH  10  74
HETATM   74  C   UNK    20      22.622  47.788  46.252  1.00  0.00     0.163 C 
HETATM   75  O   UNK    21      22.158  48.063  47.323  1.00  0.00    -0.648 OA
BRANCH  74  76
HETATM   76  O   UNK    22      23.856  47.315  46.117  1.00  0.00    -0.775 OA
HETATM   77  H   UNK    93      24.352  47.216  46.959  1.00  0.00     0.167 HD
ENDBRANCH  74  76
ENDBRANCH  10  74
ENDBRANCH   6  10
ENDBRANCH   3   4
BRANCH   3  78
HETATM   78  C   UNK     4      22.340  43.556  44.614  1.00  0.00     0.046 C 
BRANCH  78  79
HETATM   79  C   UNK     5      22.191  43.507  46.132  1.00  0.00     0.112 C 
BRANCH  79  80
HETATM   80  C   UNK     6      20.739  43.701  46.539  1.00  0.00     0.139 C 
HETATM   81  O   UNK     7      20.294  44.719  46.980  1.00  0.00    -0.650 OA
BRANCH  80  82
HETATM   82  O   UNK     8      19.953  42.632  46.334  1.00  0.00    -0.776 OA
HETATM   83  H   UNK    80      20.012  42.289  45.432  1.00  0.00     0.167 HD
ENDBRANCH  80  82
ENDBRANCH  79  80
ENDBRANCH  78  79
ENDBRANCH   3  78
ENDBRANCH   1   3
BRANCH   1  84
HETATM   84  O   UNK    10      24.270  46.232  42.981  1.00  0.00    -0.775 OA
HETATM   85  H   UNK    81      25.159  46.324  43.362  1.00  0.00     0.167 HD
ENDBRANCH   1  84
TORSDOF 33
ENDMDL
MODEL 3
REMARK VINA RESULT:    -8.277      2.882      8.877
REMARK INTER + INTRA:         -29.333
REMARK INTER:                 -24.453
REMARK INTRA:                  -4.879
REMARK UNBOUND:                -6.538
REMARK WARNING: 32 MAX_TORS EXCEEDED!!!
REMARK  33 active torsions:
REMARK  status: ('A' for Active; 'I' for Inactive)
REMARK    1  A    between atoms: C_1  and  C_3 
REMARK    2  A    between atoms: C_1  and  O_10 
REMARK    3  A    between atoms: N_2  and  C_3 
REMARK       I    between atoms: N_2  and  C_11 
REMARK    4  A    between atoms: C_3  and  C_4 
REMARK    5  A    between atoms: C_4  and  C_5 
REMARK    6  A    between atoms: C_5  and  C_6 
REMARK    7  A    between atoms: C_6  and  O_8 
REMARK       I    between atoms: C_11  and  N_12 
REMARK    8  A    between atoms: N_12  and  C_14 
REMARK    9  A    between atoms: C_14  and  C_15 
REMARK   10  A    between atoms: C_14  and  C_20 
REMARK   11  A    between atoms: C_15  and  C_16 
REMARK   12  A    between atoms: C_16  and  C_17 
REMARK   13  A    between atoms: C_17  and  C_18 
REMARK   14  A    between atoms: C_18  and  N_19 
REMARK       I    between atoms: N_19  and  C_23 
REMARK   15  A    between atoms: C_20  and  O_22 
REMARK   16  A    between atoms: C_23  and  C_24 
REMARK   17  A    between atoms: C_24  and  C_25 
REMARK   18  A    between atoms: C_24  and  N_27 
REMARK   19  A    between atoms: C_25  and  C_29 
REMARK       I    between atoms: N_27  and  C_37 
REMARK   20  A    between atoms: C_37  and  C_39 
REMARK   21  A    between atoms: C_42  and  C_45 
REMARK   22  A    between atoms: C_45  and  N_46 
REMARK       I    between atoms: N_46  and  C_63 
REMARK   23  A    between atoms: N_47  and  C_62 
REMARK   24  A    between atoms: N_48  and  C_60 
REMARK   25  A    between atoms: N_49  and  C_59 
REMARK   26  A    between atoms: N_50  and  C_61 
REMARK   27  A    between atoms: C_59  and  C_65 
REMARK   28  A    between atoms: C_60  and  C_66 
REMARK   29  A    between atoms: C_61  and  C_64 
REMARK   30  A    between atoms: C_62  and  C_63 
REMARK   31  A    between atoms: C_64  and  O_73 
REMARK   32  A    between atoms: C_65  and  O_68 
REMARK   33  A    between atoms: C_66  and  O_71 
ROOT
HETATM    1  C   UNK     1      18.508  44.432  43.987  1.00  0.00     0.163 C 
HETATM    2  O   UNK     9      17.478  44.959  44.352  1.00  0.00    -0.648 OA
ENDROOT
BRANCH   1   3
HETATM    3  C   UNK     3      19.895  44.969  44.333  1.00  0.00     0.184 C 
BRANCH   3   4
HETATM    4  N   UNK     2      19.809  46.419  44.211  1.00  0.00    -0.329 N 
HETATM    5  C   UNK    11      20.724  47.274  44.812  1.00  0.00     0.317 C 
HETATM    6  N   UNK    12      22.037  46.995  44.594  1.00  0.00    -0.329 N 
HETATM    7  O   UNK    13      20.357  48.226  45.472  1.00  0.00    -0.247 OA
HETATM    8  H   UNK    82      22.676  47.607  45.086  1.00  0.00     0.165 HD
HETATM    9  H   UNK    74      18.857  46.763  44.339  1.00  0.00     0.165 HD
BRANCH   6  10
HETATM   10  C   UNK    14      22.590  46.386  43.400  1.00  0.00     0.184 C 
BRANCH  10  11
HETATM   11  C   UNK    15      23.213  47.445  42.475  1.00  0.00     0.036 C 
BRANCH  11  12
HETATM   12  C   UNK    16      24.566  47.013  41.905  1.00  0.00     0.004 C 
BRANCH  12  13
HETATM   13  C   UNK    17      24.480  46.646  40.425  1.00  0.00     0.020 C 
BRANCH  13  14
HETATM   14  C   UNK    18      25.262  47.609  39.520  1.00  0.00     0.122 C 
BRANCH  14  15
HETATM   15  N   UNK    19      26.434  46.938  39.006  1.00  0.00    -0.359 N 
HETATM   16  C   UNK    23      27.722  47.317  39.064  1.00  0.00     0.240 C 
HETATM   17  O   UNK    26      28.532  46.870  38.265  1.00  0.00    -0.271 OA
HETATM   18  H   UNK    92      26.247  46.259  38.278  1.00  0.00     0.162 HD
BRANCH  16  19
HETATM   19  C   UNK    24      28.147  48.270  40.191  1.00  0.00     0.182 C 
BRANCH  19  20
HETATM   20  C   UNK    25      28.116  47.617  41.579  1.00  0.00     0.091 C 
BRANCH  20  21
HETATM   21  C   UNK    29      28.916  48.333  42.625  1.00  0.00     0.013 A 
HETATM   22  N   UNK    28      30.286  48.289  42.699  1.00  0.00    -0.359 N 
HETATM   23  C   UNK    36      30.704  49.091  43.721  1.00  0.00     0.042 A 
HETATM   24  H   UNK    98      30.878  47.666  42.167  1.00  0.00     0.166 HD
HETATM   25  C   UNK    31      29.559  49.680  44.311  1.00  0.00    -0.008 A 
HETATM   26  C   UNK    35      31.986  49.380  44.168  1.00  0.00     0.030 A 
HETATM   27  C   UNK    30      28.438  49.183  43.588  1.00  0.00     0.038 A 
HETATM   28  C   UNK    32      29.715  50.555  45.387  1.00  0.00     0.014 A 
HETATM   29  C   UNK    33      30.987  50.831  45.828  1.00  0.00     0.001 A 
HETATM   30  C   UNK    34      32.109  50.255  45.224  1.00  0.00     0.002 A 
ENDBRANCH  20  21
ENDBRANCH  19  20
BRANCH  19  31
HETATM   31  N   UNK    27      27.280  49.425  40.192  1.00  0.00    -0.347 N 
HETATM   32  C   UNK    37      27.789  50.682  40.214  1.00  0.00     0.222 C 
HETATM   33  O   UNK    38      28.972  50.882  40.403  1.00  0.00    -0.273 OA
HETATM   34  H   UNK    97      26.327  49.272  39.907  1.00  0.00     0.163 HD
BRANCH  32  35
HETATM   35  C   UNK    39      26.751  51.795  40.080  1.00  0.00     0.078 C 
HETATM   36  C   UNK    40      27.005  52.988  41.000  1.00  0.00     0.014 C 
HETATM   37  C   UNK    41      26.914  52.545  42.455  1.00  0.00     0.007 C 
HETATM   38  C   UNK    42      25.514  52.028  42.798  1.00  0.00     0.003 C 
HETATM   39  C   UNK    43      25.150  50.899  41.829  1.00  0.00     0.007 C 
HETATM   40  C   UNK    44      25.343  51.254  40.355  1.00  0.00     0.014 C 
BRANCH  38  41
HETATM   41  C   UNK    45      24.459  53.148  42.835  1.00  0.00     0.127 C 
BRANCH  41  42
HETATM   42  N   UNK    46      23.772  53.105  44.110  1.00  0.00    -0.359 N 
HETATM   43  C   UNK    63      23.843  53.880  45.198  1.00  0.00     0.246 C 
HETATM   44  O   UNK    67      23.305  53.502  46.240  1.00  0.00    -0.272 OA
HETATM   45  H   UNK   116      23.229  52.261  44.252  1.00  0.00     0.162 HD
BRANCH  43  46
HETATM   46  C   UNK    62      24.537  55.242  45.128  1.00  0.00     0.374 C 
BRANCH  46  47
HETATM   47  N   UNK    47      25.999  55.214  45.136  1.00  0.00     0.100 N 
HETATM   48  C   UNK    56      26.597  54.443  46.213  1.00  0.00     0.303 C 
HETATM   49  C   UNK    55      28.052  54.043  45.894  1.00  0.00     0.303 C 
HETATM   50  N   UNK    50      28.925  54.310  47.033  1.00  0.00     0.101 N 
HETATM   51  C   UNK    54      30.199  54.933  46.698  1.00  0.00     0.303 C 
HETATM   52  C   UNK    53      30.079  56.393  46.241  1.00  0.00     0.303 C 
HETATM   53  N   UNK    49      29.719  56.611  44.839  1.00  0.00     0.101 N 
HETATM   54  C   UNK    52      29.460  58.031  44.584  1.00  0.00     0.292 C 
HETATM   55  C   UNK    51      28.666  58.305  43.281  1.00  0.00     0.147 C 
HETATM   56  N   UNK    48      27.228  58.284  43.317  1.00  0.00    -0.400 N 
HETATM   57  C   UNK    58      26.565  57.023  43.550  1.00  0.00     0.147 C 
HETATM   58  C   UNK    57      26.604  56.527  45.003  1.00  0.00     0.292 C 
BRANCH  50  59
HETATM   59  C   UNK    61      29.109  53.147  47.871  1.00  0.00     0.381 C 
BRANCH  59  60
HETATM   60  C   UNK    64      28.786  53.385  49.340  1.00  0.00     0.169 C 
HETATM   61  O   UNK    72      29.583  53.458  50.227  1.00  0.00    -0.649 OA
BRANCH  60  62
HETATM   62  O   UNK    73      27.469  53.471  49.605  1.00  0.00    -0.775 OA
HETATM   63  H   UNK   143      27.253  53.305  50.533  1.00  0.00     0.167 HD
ENDBRANCH  60  62
ENDBRANCH  59  60
ENDBRANCH  50  59
BRANCH  53  64
HETATM   64  C   UNK    59      30.673  56.028  43.899  1.00  0.00     0.381 C 
BRANCH  64  65
HETATM   65  C   UNK    65      30.085  54.907  43.044  1.00  0.00     0.169 C 
HETATM   66  O   UNK    69      30.337  53.747  43.213  1.00  0.00    -0.649 OA
BRANCH  65  67
HETATM   67  O   UNK    68      29.282  55.295  42.037  1.00  0.00    -0.775 OA
HETATM   68  H   UNK   141      29.017  54.566  41.461  1.00  0.00     0.167 HD
ENDBRANCH  65  67
ENDBRANCH  64  65
ENDBRANCH  53  64
BRANCH  56  69
HETATM   69  C   UNK    60      26.524  59.454  43.788  1.00  0.00     0.227 C 
BRANCH  69  70
HETATM   70  C   UNK    66      25.966  60.407  42.727  1.00  0.00     0.157 C 
HETATM   71  O   UNK    70      26.179  61.592  42.718  1.00  0.00    -0.649 OA
BRANCH  70  72
HETATM   72  O   UNK    71      25.228  59.839  41.770  1.00  0.00    -0.775 OA
HETATM   73  H   UNK   142      24.278  59.713  42.015  1.00  0.00     0.167 HD
ENDBRANCH  70  72
ENDBRANCH  69  70
ENDBRANCH  56  69
ENDBRANCH  46  47
ENDBRANCH  43  46
ENDBRANCH  41  42
ENDBRANCH  38  41
ENDBRANCH  32  35
ENDBRANCH  19  31
ENDBRANCH  16  19
ENDBRANCH  14  15
ENDBRANCH  13  14
ENDBRANCH  12  13
ENDBRANCH  11  12
ENDBRANCH  10  11
BRANCH  10  74
HETATM   74  C   UNK    20      23.679  45.377  43.814  1.00  0.00     0.163 C 
HETATM   75  O   UNK    21      23.797  44.317  43.267  1.00  0.00    -0.648 OA
BRANCH  74  76
HETATM   76  O   UNK    22      24.481  45.756  44.803  1.00  0.00    -0.775 OA
HETATM   77  H   UNK    93      25.429  45.537  44.668  1.00  0.00     0.167 HD
ENDBRANCH  74  76
ENDBRANCH  10  74
ENDBRANCH   6  10
ENDBRANCH   3   4
BRANCH   3  78
HETATM   78  C   UNK     4      20.322  44.542  45.739  1.00  0.00     0.046 C 
BRANCH  78  79
HETATM   79  C   UNK     5      20.456  43.025  45.845  1.00  0.00     0.112 C 
BRANCH  79  80
HETATM   80  C   UNK     6      21.881  42.630  46.199  1.00  0.00     0.139 C 
HETATM   81  O   UNK     7      22.206  41.538  46.561  1.00  0.00    -0.650 OA
BRANCH  80  82
HETATM   82  O   UNK     8      22.787  43.608  46.041  1.00  0.00    -0.776 OA
HETATM   83  H   UNK    80      23.696  43.303  46.163  1.00  0.00     0.167 HD
ENDBRANCH  80  82
ENDBRANCH  79  80
ENDBRANCH  78  79
ENDBRANCH   3  78
ENDBRANCH   1   3
BRANCH   1  84
HETATM   84  O   UNK    10      18.544  43.295  43.329  1.00  0.00    -0.775 OA
HETATM   85  H   UNK    81      19.412  42.863  43.386  1.00  0.00     0.167 HD
ENDBRANCH   1  84
TORSDOF 33
ENDMDL
MODEL 4
REMARK VINA RESULT:    -8.216      2.714      7.645
REMARK INTER + INTRA:         -29.163
REMARK INTER:                 -25.145
REMARK INTRA:                  -4.019
REMARK UNBOUND:                -6.538
REMARK WARNING: 32 MAX_TORS EXCEEDED!!!
REMARK  33 active torsions:
REMARK  status: ('A' for Active; 'I' for Inactive)
REMARK    1  A    between atoms: C_1  and  C_3 
REMARK    2  A    between atoms: C_1  and  O_10 
REMARK    3  A    between atoms: N_2  and  C_3 
REMARK       I    between atoms: N_2  and  C_11 
REMARK    4  A    between atoms: C_3  and  C_4 
REMARK    5  A    between atoms: C_4  and  C_5 
REMARK    6  A    between atoms: C_5  and  C_6 
REMARK    7  A    between atoms: C_6  and  O_8 
REMARK       I    between atoms: C_11  and  N_12 
REMARK    8  A    between atoms: N_12  and  C_14 
REMARK    9  A    between atoms: C_14  and  C_15 
REMARK   10  A    between atoms: C_14  and  C_20 
REMARK   11  A    between atoms: C_15  and  C_16 
REMARK   12  A    between atoms: C_16  and  C_17 
REMARK   13  A    between atoms: C_17  and  C_18 
REMARK   14  A    between atoms: C_18  and  N_19 
REMARK       I    between atoms: N_19  and  C_23 
REMARK   15  A    between atoms: C_20  and  O_22 
REMARK   16  A    between atoms: C_23  and  C_24 
REMARK   17  A    between atoms: C_24  and  C_25 
REMARK   18  A    between atoms: C_24  and  N_27 
REMARK   19  A    between atoms: C_25  and  C_29 
REMARK       I    between atoms: N_27  and  C_37 
REMARK   20  A    between atoms: C_37  and  C_39 
REMARK   21  A    between atoms: C_42  and  C_45 
REMARK   22  A    between atoms: C_45  and  N_46 
REMARK       I    between atoms: N_46  and  C_63 
REMARK   23  A    between atoms: N_47  and  C_62 
REMARK   24  A    between atoms: N_48  and  C_60 
REMARK   25  A    between atoms: N_49  and  C_59 
REMARK   26  A    between atoms: N_50  and  C_61 
REMARK   27  A    between atoms: C_59  and  C_65 
REMARK   28  A    between atoms: C_60  and  C_66 
REMARK   29  A    between atoms: C_61  and  C_64 
REMARK   30  A    between atoms: C_62  and  C_63 
REMARK   31  A    between atoms: C_64  and  O_73 
REMARK   32  A    between atoms: C_65  and  O_68 
REMARK   33  A    between atoms: C_66  and  O_71 
ROOT
HETATM    1  C   UNK     1      18.655  44.186  44.318  1.00  0.00     0.163 C 
HETATM    2  O   UNK     9      17.529  44.530  44.607  1.00  0.00    -0.648 OA
ENDROOT
BRANCH   1   3
HETATM    3  C   UNK     3      19.897  45.005  44.656  1.00  0.00     0.184 C 
BRANCH   3   4
HETATM    4  N   UNK     2      19.591  46.379  44.277  1.00  0.00    -0.329 N 
HETATM    5  C   UNK    11      20.020  47.472  45.020  1.00  0.00     0.317 C 
HETATM    6  N   UNK    12      21.343  47.497  45.339  1.00  0.00    -0.329 N 
HETATM    7  O   UNK    13      19.253  48.358  45.339  1.00  0.00    -0.247 OA
HETATM    8  H   UNK    82      21.612  48.280  45.921  1.00  0.00     0.165 HD
HETATM    9  H   UNK    74      18.618  46.496  43.996  1.00  0.00     0.165 HD
BRANCH   6  10
HETATM   10  C   UNK    14      22.421  46.946  44.541  1.00  0.00     0.184 C 
BRANCH  10  11
HETATM   11  C   UNK    15      22.258  47.317  43.057  1.00  0.00     0.036 C 
BRANCH  11  12
HETATM   12  C   UNK    16      23.529  47.068  42.241  1.00  0.00     0.004 C 
BRANCH  12  13
HETATM   13  C   UNK    17      23.455  45.773  41.435  1.00  0.00     0.020 C 
BRANCH  13  14
HETATM   14  C   UNK    18      23.457  46.009  39.917  1.00  0.00     0.122 C 
BRANCH  14  15
HETATM   15  N   UNK    19      24.710  45.552  39.363  1.00  0.00    -0.359 N 
HETATM   16  C   UNK    23      25.833  46.248  39.117  1.00  0.00     0.240 C 
HETATM   17  O   UNK    26      26.647  45.838  38.303  1.00  0.00    -0.271 OA
HETATM   18  H   UNK    92      24.650  44.688  38.837  1.00  0.00     0.162 HD
BRANCH  16  19
HETATM   19  C   UNK    24      26.083  47.529  39.928  1.00  0.00     0.182 C 
BRANCH  19  20
HETATM   20  C   UNK    25      25.544  48.792  39.243  1.00  0.00     0.091 C 
BRANCH  20  21
HETATM   21  C   UNK    29      25.454  49.994  40.134  1.00  0.00     0.013 A 
HETATM   22  N   UNK    28      24.754  50.017  41.315  1.00  0.00    -0.359 N 
HETATM   23  C   UNK    36      24.921  51.235  41.909  1.00  0.00     0.042 A 
HETATM   24  H   UNK    98      24.118  49.297  41.628  1.00  0.00     0.166 HD
HETATM   25  C   UNK    31      25.770  52.012  41.083  1.00  0.00    -0.008 A 
HETATM   26  C   UNK    35      24.428  51.720  43.112  1.00  0.00     0.030 A 
HETATM   27  C   UNK    30      26.097  51.194  39.966  1.00  0.00     0.038 A 
HETATM   28  C   UNK    32      26.104  53.309  41.472  1.00  0.00     0.014 A 
HETATM   29  C   UNK    33      25.606  53.787  42.662  1.00  0.00     0.001 A 
HETATM   30  C   UNK    34      24.783  53.001  43.474  1.00  0.00     0.002 A 
ENDBRANCH  20  21
ENDBRANCH  19  20
BRANCH  19  31
HETATM   31  N   UNK    27      27.501  47.681  40.156  1.00  0.00    -0.347 N 
HETATM   32  C   UNK    37      27.990  47.898  41.402  1.00  0.00     0.222 C 
HETATM   33  O   UNK    38      27.254  48.139  42.337  1.00  0.00    -0.273 OA
HETATM   34  H   UNK    97      28.111  47.357  39.424  1.00  0.00     0.163 HD
BRANCH  32  35
HETATM   35  C   UNK    39      29.515  47.908  41.498  1.00  0.00     0.078 C 
HETATM   36  C   UNK    40      30.050  48.589  42.756  1.00  0.00     0.014 C 
HETATM   37  C   UNK    41      29.650  50.060  42.755  1.00  0.00     0.007 C 
HETATM   38  C   UNK    42      30.266  50.807  41.568  1.00  0.00     0.003 C 
HETATM   39  C   UNK    43      29.861  50.100  40.271  1.00  0.00     0.007 C 
HETATM   40  C   UNK    44      30.127  48.594  40.271  1.00  0.00     0.014 C 
BRANCH  38  41
HETATM   41  C   UNK    45      31.789  50.984  41.702  1.00  0.00     0.127 C 
BRANCH  41  42
HETATM   42  N   UNK    46      32.110  52.394  41.598  1.00  0.00    -0.359 N 
HETATM   43  C   UNK    63      32.616  53.269  42.473  1.00  0.00     0.246 C 
HETATM   44  O   UNK    67      32.594  54.471  42.201  1.00  0.00    -0.272 OA
HETATM   45  H   UNK   116      31.773  52.826  40.745  1.00  0.00     0.162 HD
BRANCH  43  46
HETATM   46  C   UNK    62      33.262  52.774  43.768  1.00  0.00     0.374 C 
BRANCH  46  47
HETATM   47  N   UNK    47      32.347  52.508  44.877  1.00  0.00     0.100 N 
HETATM   48  C   UNK    56      31.026  53.098  44.744  1.00  0.00     0.303 C 
HETATM   49  C   UNK    55      29.990  52.397  45.646  1.00  0.00     0.303 C 
HETATM   50  N   UNK    50      29.186  53.377  46.371  1.00  0.00     0.101 N 
HETATM   51  C   UNK    54      28.967  53.072  47.779  1.00  0.00     0.303 C 
HETATM   52  C   UNK    53      30.221  53.216  48.650  1.00  0.00     0.303 C 
HETATM   53  N   UNK    49      31.148  52.083  48.654  1.00  0.00     0.101 N 
HETATM   54  C   UNK    52      32.380  52.421  49.373  1.00  0.00     0.292 C 
HETATM   55  C   UNK    51      33.570  51.478  49.066  1.00  0.00     0.147 C 
HETATM   56  N   UNK    48      34.421  51.761  47.941  1.00  0.00    -0.400 N 
HETATM   57  C   UNK    58      33.870  51.628  46.613  1.00  0.00     0.147 C 
HETATM   58  C   UNK    57      32.928  52.763  46.183  1.00  0.00     0.292 C 
BRANCH  50  59
HETATM   59  C   UNK    61      27.944  53.679  45.696  1.00  0.00     0.381 C 
BRANCH  59  60
HETATM   60  C   UNK    64      27.403  55.073  45.987  1.00  0.00     0.169 C 
HETATM   61  O   UNK    72      28.058  56.028  46.277  1.00  0.00    -0.649 OA
BRANCH  60  62
HETATM   62  O   UNK    73      26.061  55.161  45.937  1.00  0.00    -0.775 OA
HETATM   63  H   UNK   143      25.655  54.503  45.357  1.00  0.00     0.167 HD
ENDBRANCH  60  62
ENDBRANCH  59  60
ENDBRANCH  50  59
BRANCH  53  64
HETATM   64  C   UNK    59      30.540  50.839  49.119  1.00  0.00     0.381 C 
BRANCH  64  65
HETATM   65  C   UNK    65      30.587  49.711  48.089  1.00  0.00     0.169 C 
HETATM   66  O   UNK    69      29.664  49.426  47.381  1.00  0.00    -0.649 OA
BRANCH  65  67
HETATM   67  O   UNK    68      31.731  49.004  48.045  1.00  0.00    -0.775 OA
HETATM   68  H   UNK   141      31.799  48.349  48.752  1.00  0.00     0.167 HD
ENDBRANCH  65  67
ENDBRANCH  64  65
ENDBRANCH  53  64
BRANCH  56  69
HETATM   69  C   UNK    60      35.464  52.750  48.086  1.00  0.00     0.227 C 
BRANCH  69  70
HETATM   70  C   UNK    66      36.764  52.299  48.759  1.00  0.00     0.157 C 
HETATM   71  O   UNK    70      37.729  53.008  48.886  1.00  0.00    -0.649 OA
BRANCH  70  72
HETATM   72  O   UNK    71      36.766  51.051  49.235  1.00  0.00    -0.775 OA
HETATM   73  H   UNK   142      36.532  50.986  50.194  1.00  0.00     0.167 HD
ENDBRANCH  70  72
ENDBRANCH  69  70
ENDBRANCH  56  69
ENDBRANCH  46  47
ENDBRANCH  43  46
ENDBRANCH  41  42
ENDBRANCH  38  41
ENDBRANCH  32  35
ENDBRANCH  19  31
ENDBRANCH  16  19
ENDBRANCH  14  15
ENDBRANCH  13  14
ENDBRANCH  12  13
ENDBRANCH  11  12
ENDBRANCH  10  11
BRANCH  10  74
HETATM   74  C   UNK    20      23.760  47.507  45.056  1.00  0.00     0.163 C 
HETATM   75  O   UNK    21      24.010  48.679  45.017  1.00  0.00    -0.648 OA
BRANCH  74  76
HETATM   76  O   UNK    22      24.614  46.618  45.552  1.00  0.00    -0.775 OA
HETATM   77  H   UNK    93      25.502  46.626  45.134  1.00  0.00     0.167 HD
ENDBRANCH  74  76
ENDBRANCH  10  74
ENDBRANCH   6  10
ENDBRANCH   3   4
BRANCH   3  78
HETATM   78  C   UNK     4      20.251  44.892  46.141  1.00  0.00     0.046 C 
BRANCH  78  79
HETATM   79  C   UNK     5      20.453  43.437  46.557  1.00  0.00     0.112 C 
BRANCH  79  80
HETATM   80  C   UNK     6      21.842  42.952  46.173  1.00  0.00     0.139 C 
HETATM   81  O   UNK     7      22.751  43.672  45.886  1.00  0.00    -0.650 OA
BRANCH  80  82
HETATM   82  O   UNK     8      21.998  41.618  46.210  1.00  0.00    -0.776 OA
HETATM   83  H   UNK    80      22.450  41.270  45.430  1.00  0.00     0.167 HD
ENDBRANCH  80  82
ENDBRANCH  79  80
ENDBRANCH  78  79
ENDBRANCH   3  78
ENDBRANCH   1   3
BRANCH   1  84
HETATM   84  O   UNK    10      18.935  43.030  43.758  1.00  0.00    -0.775 OA
HETATM   85  H   UNK    81      19.684  43.090  43.142  1.00  0.00     0.167 HD
ENDBRANCH   1  84
TORSDOF 33
ENDMDL
MODEL 5
REMARK VINA RESULT:    -8.174      3.162      7.505
REMARK INTER + INTRA:         -29.047
REMARK INTER:                 -24.444
REMARK INTRA:                  -4.604
REMARK UNBOUND:                -6.538
REMARK WARNING: 32 MAX_TORS EXCEEDED!!!
REMARK  33 active torsions:
REMARK  status: ('A' for Active; 'I' for Inactive)
REMARK    1  A    between atoms: C_1  and  C_3 
REMARK    2  A    between atoms: C_1  and  O_10 
REMARK    3  A    between atoms: N_2  and  C_3 
REMARK       I    between atoms: N_2  and  C_11 
REMARK    4  A    between atoms: C_3  and  C_4 
REMARK    5  A    between atoms: C_4  and  C_5 
REMARK    6  A    between atoms: C_5  and  C_6 
REMARK    7  A    between atoms: C_6  and  O_8 
REMARK       I    between atoms: C_11  and  N_12 
REMARK    8  A    between atoms: N_12  and  C_14 
REMARK    9  A    between atoms: C_14  and  C_15 
REMARK   10  A    between atoms: C_14  and  C_20 
REMARK   11  A    between atoms: C_15  and  C_16 
REMARK   12  A    between atoms: C_16  and  C_17 
REMARK   13  A    between atoms: C_17  and  C_18 
REMARK   14  A    between atoms: C_18  and  N_19 
REMARK       I    between atoms: N_19  and  C_23 
REMARK   15  A    between atoms: C_20  and  O_22 
REMARK   16  A    between atoms: C_23  and  C_24 
REMARK   17  A    between atoms: C_24  and  C_25 
REMARK   18  A    between atoms: C_24  and  N_27 
REMARK   19  A    between atoms: C_25  and  C_29 
REMARK       I    between atoms: N_27  and  C_37 
REMARK   20  A    between atoms: C_37  and  C_39 
REMARK   21  A    between atoms: C_42  and  C_45 
REMARK   22  A    between atoms: C_45  and  N_46 
REMARK       I    between atoms: N_46  and  C_63 
REMARK   23  A    between atoms: N_47  and  C_62 
REMARK   24  A    between atoms: N_48  and  C_60 
REMARK   25  A    between atoms: N_49  and  C_59 
REMARK   26  A    between atoms: N_50  and  C_61 
REMARK   27  A    between atoms: C_59  and  C_65 
REMARK   28  A    between atoms: C_60  and  C_66 
REMARK   29  A    between atoms: C_61  and  C_64 
REMARK   30  A    between atoms: C_62  and  C_63 
REMARK   31  A    between atoms: C_64  and  O_73 
REMARK   32  A    between atoms: C_65  and  O_68 
REMARK   33  A    between atoms: C_66  and  O_71 
ROOT
HETATM    1  C   UNK     1      18.519  44.157  44.253  1.00  0.00     0.163 C 
HETATM    2  O   UNK     9      17.421  44.427  44.693  1.00  0.00    -0.648 OA
ENDROOT
BRANCH   1   3
HETATM    3  C   UNK     3      19.752  45.027  44.482  1.00  0.00     0.184 C 
BRANCH   3   4
HETATM    4  N   UNK     2      19.322  46.404  44.272  1.00  0.00    -0.329 N 
HETATM    5  C   UNK    11      19.863  47.471  44.977  1.00  0.00     0.317 C 
HETATM    6  N   UNK    12      21.222  47.544  45.004  1.00  0.00    -0.329 N 
HETATM    7  O   UNK    13      19.153  48.298  45.514  1.00  0.00    -0.247 OA
HETATM    8  H   UNK    82      21.583  48.304  45.567  1.00  0.00     0.165 HD
HETATM    9  H   UNK    74      18.307  46.488  44.216  1.00  0.00     0.165 HD
BRANCH   6  10
HETATM   10  C   UNK    14      22.118  47.094  43.957  1.00  0.00     0.184 C 
BRANCH  10  11
HETATM   11  C   UNK    15      22.742  48.286  43.211  1.00  0.00     0.036 C 
BRANCH  11  12
HETATM   12  C   UNK    16      22.528  49.617  43.936  1.00  0.00     0.004 C 
BRANCH  12  13
HETATM   13  C   UNK    17      23.693  50.583  43.729  1.00  0.00     0.020 C 
BRANCH  13  14
HETATM   14  C   UNK    18      24.479  50.309  42.439  1.00  0.00     0.122 C 
BRANCH  14  15
HETATM   15  N   UNK    19      25.886  50.526  42.679  1.00  0.00    -0.359 N 
HETATM   16  C   UNK    23      26.917  50.445  41.821  1.00  0.00     0.240 C 
HETATM   17  O   UNK    26      28.052  50.264  42.236  1.00  0.00    -0.271 OA
HETATM   18  H   UNK    92      26.165  50.449  43.651  1.00  0.00     0.162 HD
BRANCH  16  19
HETATM   19  C   UNK    24      26.630  50.645  40.325  1.00  0.00     0.182 C 
BRANCH  19  20
HETATM   20  C   UNK    25      27.129  49.485  39.454  1.00  0.00     0.091 C 
BRANCH  20  21
HETATM   21  C   UNK    29      26.114  48.412  39.202  1.00  0.00     0.013 A 
HETATM   22  N   UNK    28      25.598  48.127  37.962  1.00  0.00    -0.359 N 
HETATM   23  C   UNK    36      24.749  47.063  38.066  1.00  0.00     0.042 A 
HETATM   24  H   UNK    98      25.727  48.691  37.134  1.00  0.00     0.166 HD
HETATM   25  C   UNK    31      24.734  46.646  39.420  1.00  0.00    -0.008 A 
HETATM   26  C   UNK    35      24.010  46.407  37.091  1.00  0.00     0.030 A 
HETATM   27  C   UNK    30      25.617  47.518  40.115  1.00  0.00     0.038 A 
HETATM   28  C   UNK    32      23.939  45.562  39.795  1.00  0.00     0.014 A 
HETATM   29  C   UNK    33      23.205  44.920  38.825  1.00  0.00     0.001 A 
HETATM   30  C   UNK    34      23.243  45.334  37.489  1.00  0.00     0.002 A 
ENDBRANCH  20  21
ENDBRANCH  19  20
BRANCH  19  31
HETATM   31  N   UNK    27      27.248  51.873  39.880  1.00  0.00    -0.347 N 
HETATM   32  C   UNK    37      26.736  53.080  40.227  1.00  0.00     0.222 C 
HETATM   33  O   UNK    38      25.656  53.174  40.776  1.00  0.00    -0.273 OA
HETATM   34  H   UNK    97      28.195  51.803  39.546  1.00  0.00     0.163 HD
BRANCH  32  35
HETATM   35  C   UNK    39      27.573  54.280  39.789  1.00  0.00     0.078 C 
HETATM   36  C   UNK    40      29.046  53.951  39.553  1.00  0.00     0.014 C 
HETATM   37  C   UNK    41      29.685  53.485  40.857  1.00  0.00     0.007 C 
HETATM   38  C   UNK    42      29.656  54.587  41.920  1.00  0.00     0.003 C 
HETATM   39  C   UNK    43      28.208  55.047  42.121  1.00  0.00     0.007 C 
HETATM   40  C   UNK    44      27.482  55.407  40.824  1.00  0.00     0.014 C 
BRANCH  38  41
HETATM   41  C   UNK    45      30.613  55.749  41.599  1.00  0.00     0.127 C 
BRANCH  41  42
HETATM   42  N   UNK    46      31.954  55.224  41.442  1.00  0.00    -0.359 N 
HETATM   43  C   UNK    63      32.894  54.875  42.326  1.00  0.00     0.246 C 
HETATM   44  O   UNK    67      34.040  54.656  41.929  1.00  0.00    -0.272 OA
HETATM   45  H   UNK   116      32.289  55.241  40.484  1.00  0.00     0.162 HD
BRANCH  43  46
HETATM   46  C   UNK    62      32.534  54.699  43.802  1.00  0.00     0.374 C 
BRANCH  46  47
HETATM   47  N   UNK    47      32.361  53.320  44.257  1.00  0.00     0.100 N 
HETATM   48  C   UNK    56      32.360  52.318  43.205  1.00  0.00     0.303 C 
HETATM   49  C   UNK    55      32.673  50.910  43.752  1.00  0.00     0.303 C 
HETATM   50  N   UNK    50      31.732  49.927  43.223  1.00  0.00     0.101 N 
HETATM   51  C   UNK    54      31.219  48.978  44.203  1.00  0.00     0.303 C 
HETATM   52  C   UNK    53      30.253  49.595  45.222  1.00  0.00     0.303 C 
HETATM   53  N   UNK    49      30.857  50.288  46.361  1.00  0.00     0.101 N 
HETATM   54  C   UNK    52      29.835  50.981  47.150  1.00  0.00     0.292 C 
HETATM   55  C   UNK    51      30.399  52.076  48.092  1.00  0.00     0.147 C 
HETATM   56  N   UNK    48      30.586  53.410  47.587  1.00  0.00    -0.400 N 
HETATM   57  C   UNK    58      31.607  53.630  46.590  1.00  0.00     0.147 C 
HETATM   58  C   UNK    57      31.251  53.148  45.176  1.00  0.00     0.292 C 
BRANCH  50  59
HETATM   59  C   UNK    61      32.240  49.254  42.051  1.00  0.00     0.381 C 
BRANCH  59  60
HETATM   60  C   UNK    64      31.377  49.436  40.808  1.00  0.00     0.169 C 
HETATM   61  O   UNK    72      31.625  50.152  39.886  1.00  0.00    -0.649 OA
BRANCH  60  62
HETATM   62  O   UNK    73      30.229  48.733  40.831  1.00  0.00    -0.775 OA
HETATM   63  H   UNK   143      29.994  48.412  41.712  1.00  0.00     0.167 HD
ENDBRANCH  60  62
ENDBRANCH  59  60
ENDBRANCH  50  59
BRANCH  53  64
HETATM   64  C   UNK    59      31.718  49.430  47.170  1.00  0.00     0.381 C 
BRANCH  64  65
HETATM   65  C   UNK    65      33.033  50.091  47.581  1.00  0.00     0.169 C 
HETATM   66  O   UNK    69      33.818  50.543  46.796  1.00  0.00    -0.649 OA
BRANCH  65  67
HETATM   67  O   UNK    68      33.298  50.103  48.900  1.00  0.00    -0.775 OA
HETATM   68  H   UNK   141      33.727  49.294  49.208  1.00  0.00     0.167 HD
ENDBRANCH  65  67
ENDBRANCH  64  65
ENDBRANCH  53  64
BRANCH  56  69
HETATM   69  C   UNK    60      29.448  54.297  47.518  1.00  0.00     0.227 C 
BRANCH  69  70
HETATM   70  C   UNK    66      28.103  53.677  47.131  1.00  0.00     0.157 C 
HETATM   71  O   UNK    70      27.243  53.400  47.927  1.00  0.00    -0.649 OA
BRANCH  70  72
HETATM   72  O   UNK    71      27.913  53.476  45.824  1.00  0.00    -0.775 OA
HETATM   73  H   UNK   142      26.965  53.365  45.567  1.00  0.00     0.167 HD
ENDBRANCH  70  72
ENDBRANCH  69  70
ENDBRANCH  56  69
ENDBRANCH  46  47
ENDBRANCH  43  46
ENDBRANCH  41  42
ENDBRANCH  38  41
ENDBRANCH  32  35
ENDBRANCH  19  31
ENDBRANCH  16  19
ENDBRANCH  14  15
ENDBRANCH  13  14
ENDBRANCH  12  13
ENDBRANCH  11  12
ENDBRANCH  10  11
BRANCH  10  74
HETATM   74  C   UNK    20      23.243  46.253  44.590  1.00  0.00     0.163 C 
HETATM   75  O   UNK    21      23.780  45.364  43.991  1.00  0.00    -0.648 OA
BRANCH  74  76
HETATM   76  O   UNK    22      23.585  46.576  45.833  1.00  0.00    -0.775 OA
HETATM   77  H   UNK    93      24.443  47.048  45.911  1.00  0.00     0.167 HD
ENDBRANCH  74  76
ENDBRANCH  10  74
ENDBRANCH   6  10
ENDBRANCH   3   4
BRANCH   3  78
HETATM   78  C   UNK     4      20.326  44.820  45.886  1.00  0.00     0.046 C 
BRANCH  78  79
HETATM   79  C   UNK     5      20.303  43.346  46.286  1.00  0.00     0.112 C 
BRANCH  79  80
HETATM   80  C   UNK     6      21.701  42.750  46.237  1.00  0.00     0.139 C 
HETATM   81  O   UNK     7      21.933  41.578  46.231  1.00  0.00    -0.650 OA
BRANCH  80  82
HETATM   82  O   UNK     8      22.692  43.655  46.164  1.00  0.00    -0.776 OA
HETATM   83  H   UNK    80      22.395  44.554  46.358  1.00  0.00     0.167 HD
ENDBRANCH  80  82
ENDBRANCH  79  80
ENDBRANCH  78  79
ENDBRANCH   3  78
ENDBRANCH   1   3
BRANCH   1  84
HETATM   84  O   UNK    10      18.784  43.046  43.604  1.00  0.00    -0.775 OA
HETATM   85  H   UNK    81      18.744  42.264  44.179  1.00  0.00     0.167 HD
ENDBRANCH   1  84
TORSDOF 33
ENDMDL
MODEL 6
REMARK VINA RESULT:    -8.085      2.045      3.804
REMARK INTER + INTRA:         -28.804
REMARK INTER:                 -22.856
REMARK INTRA:                  -5.948
REMARK UNBOUND:                -6.538
REMARK WARNING: 32 MAX_TORS EXCEEDED!!!
REMARK  33 active torsions:
REMARK  status: ('A' for Active; 'I' for Inactive)
REMARK    1  A    between atoms: C_1  and  C_3 
REMARK    2  A    between atoms: C_1  and  O_10 
REMARK    3  A    between atoms: N_2  and  C_3 
REMARK       I    between atoms: N_2  and  C_11 
REMARK    4  A    between atoms: C_3  and  C_4 
REMARK    5  A    between atoms: C_4  and  C_5 
REMARK    6  A    between atoms: C_5  and  C_6 
REMARK    7  A    between atoms: C_6  and  O_8 
REMARK       I    between atoms: C_11  and  N_12 
REMARK    8  A    between atoms: N_12  and  C_14 
REMARK    9  A    between atoms: C_14  and  C_15 
REMARK   10  A    between atoms: C_14  and  C_20 
REMARK   11  A    between atoms: C_15  and  C_16 
REMARK   12  A    between atoms: C_16  and  C_17 
REMARK   13  A    between atoms: C_17  and  C_18 
REMARK   14  A    between atoms: C_18  and  N_19 
REMARK       I    between atoms: N_19  and  C_23 
REMARK   15  A    between atoms: C_20  and  O_22 
REMARK   16  A    between atoms: C_23  and  C_24 
REMARK   17  A    between atoms: C_24  and  C_25 
REMARK   18  A    between atoms: C_24  and  N_27 
REMARK   19  A    between atoms: C_25  and  C_29 
REMARK       I    between atoms: N_27  and  C_37 
REMARK   20  A    between atoms: C_37  and  C_39 
REMARK   21  A    between atoms: C_42  and  C_45 
REMARK   22  A    between atoms: C_45  and  N_46 
REMARK       I    between atoms: N_46  and  C_63 
REMARK   23  A    between atoms: N_47  and  C_62 
REMARK   24  A    between atoms: N_48  and  C_60 
REMARK   25  A    between atoms: N_49  and  C_59 
REMARK   26  A    between atoms: N_50  and  C_61 
REMARK   27  A    between atoms: C_59  and  C_65 
REMARK   28  A    between atoms: C_60  and  C_66 
REMARK   29  A    between atoms: C_61  and  C_64 
REMARK   30  A    between atoms: C_62  and  C_63 
REMARK   31  A    between atoms: C_64  and  O_73 
REMARK   32  A    between atoms: C_65  and  O_68 
REMARK   33  A    between atoms: C_66  and  O_71 
ROOT
HETATM    1  C   UNK     1      25.526  54.561  42.728  1.00  0.00     0.163 C 
HETATM    2  O   UNK     9      24.942  53.528  42.478  1.00  0.00    -0.648 OA
ENDROOT
BRANCH   1   3
HETATM    3  C   UNK     3      25.528  55.210  44.110  1.00  0.00     0.184 C 
BRANCH   3   4
HETATM    4  N   UNK     2      25.992  54.186  45.038  1.00  0.00    -0.329 N 
HETATM    5  C   UNK    11      25.557  54.120  46.356  1.00  0.00     0.317 C 
HETATM    6  N   UNK    12      24.210  54.161  46.545  1.00  0.00    -0.329 N 
HETATM    7  O   UNK    13      26.343  54.009  47.275  1.00  0.00    -0.247 OA
HETATM    8  H   UNK    82      23.930  54.161  47.517  1.00  0.00     0.165 HD
HETATM    9  H   UNK    74      27.000  54.043  44.985  1.00  0.00     0.165 HD
BRANCH   6  10
HETATM   10  C   UNK    14      23.207  53.647  45.632  1.00  0.00     0.184 C 
BRANCH  10  11
HETATM   11  C   UNK    15      22.990  52.139  45.839  1.00  0.00     0.036 C 
BRANCH  11  12
HETATM   12  C   UNK    16      22.990  51.354  44.525  1.00  0.00     0.004 C 
BRANCH  12  13
HETATM   13  C   UNK    17      21.805  50.396  44.423  1.00  0.00     0.020 C 
BRANCH  13  14
HETATM   14  C   UNK    18      22.224  48.953  44.105  1.00  0.00     0.122 C 
BRANCH  14  15
HETATM   15  N   UNK    19      23.654  48.823  44.263  1.00  0.00    -0.359 N 
HETATM   16  C   UNK    23      24.511  48.023  43.606  1.00  0.00     0.240 C 
HETATM   17  O   UNK    26      25.590  47.737  44.103  1.00  0.00    -0.271 OA
HETATM   18  H   UNK    92      24.013  49.155  45.150  1.00  0.00     0.162 HD
BRANCH  16  19
HETATM   19  C   UNK    24      24.117  47.536  42.204  1.00  0.00     0.182 C 
BRANCH  19  20
HETATM   20  C   UNK    25      24.019  46.008  42.101  1.00  0.00     0.091 C 
BRANCH  20  21
HETATM   21  C   UNK    29      23.125  45.370  43.120  1.00  0.00     0.013 A 
HETATM   22  N   UNK    28      21.764  45.543  43.155  1.00  0.00    -0.359 N 
HETATM   23  C   UNK    36      21.242  44.784  44.162  1.00  0.00     0.042 A 
HETATM   24  H   UNK    98      21.249  46.219  42.608  1.00  0.00     0.166 HD
HETATM   25  C   UNK    31      22.309  44.090  44.784  1.00  0.00    -0.008 A 
HETATM   26  C   UNK    35      19.926  44.617  44.571  1.00  0.00     0.030 A 
HETATM   27  C   UNK    30      23.492  44.478  44.095  1.00  0.00     0.038 A 
HETATM   28  C   UNK    32      22.041  43.233  45.851  1.00  0.00     0.014 A 
HETATM   29  C   UNK    33      20.735  43.077  46.256  1.00  0.00     0.001 A 
HETATM   30  C   UNK    34      19.691  43.757  45.621  1.00  0.00     0.002 A 
ENDBRANCH  20  21
ENDBRANCH  19  20
BRANCH  19  31
HETATM   31  N   UNK    27      25.083  48.015  41.243  1.00  0.00    -0.347 N 
HETATM   32  C   UNK    37      25.271  49.343  41.042  1.00  0.00     0.222 C 
HETATM   33  O   UNK    38      24.527  50.168  41.532  1.00  0.00    -0.273 OA
HETATM   34  H   UNK    97      25.780  47.355  40.940  1.00  0.00     0.163 HD
BRANCH  32  35
HETATM   35  C   UNK    39      26.416  49.690  40.091  1.00  0.00     0.078 C 
HETATM   36  C   UNK    40      27.260  48.487  39.677  1.00  0.00     0.014 C 
HETATM   37  C   UNK    41      27.941  47.888  40.903  1.00  0.00     0.007 C 
HETATM   38  C   UNK    42      28.904  48.886  41.552  1.00  0.00     0.003 C 
HETATM   39  C   UNK    43      28.139  50.170  41.888  1.00  0.00     0.007 C 
HETATM   40  C   UNK    44      27.337  50.743  40.720  1.00  0.00     0.014 C 
BRANCH  38  41
HETATM   41  C   UNK    45      30.158  49.143  40.698  1.00  0.00     0.127 C 
BRANCH  41  42
HETATM   42  N   UNK    46      31.278  48.430  41.279  1.00  0.00    -0.359 N 
HETATM   43  C   UNK    63      32.497  48.826  41.661  1.00  0.00     0.246 C 
HETATM   44  O   UNK    67      33.347  47.975  41.931  1.00  0.00    -0.272 OA
HETATM   45  H   UNK   116      31.162  47.423  41.281  1.00  0.00     0.162 HD
BRANCH  43  46
HETATM   46  C   UNK    62      32.809  50.316  41.814  1.00  0.00     0.374 C 
BRANCH  46  47
HETATM   47  N   UNK    47      32.227  50.973  42.983  1.00  0.00     0.100 N 
HETATM   48  C   UNK    56      31.797  50.080  44.045  1.00  0.00     0.303 C 
HETATM   49  C   UNK    55      31.670  50.812  45.397  1.00  0.00     0.303 C 
HETATM   50  N   UNK    50      30.412  50.472  46.054  1.00  0.00     0.101 N 
HETATM   51  C   UNK    54      29.701  51.600  46.642  1.00  0.00     0.303 C 
HETATM   52  C   UNK    53      29.090  52.558  45.611  1.00  0.00     0.303 C 
HETATM   53  N   UNK    49      29.991  53.557  45.033  1.00  0.00     0.101 N 
HETATM   54  C   UNK    52      29.333  54.279  43.940  1.00  0.00     0.292 C 
HETATM   55  C   UNK    51      30.311  55.027  42.999  1.00  0.00     0.147 C 
HETATM   56  N   UNK    48      30.887  54.326  41.882  1.00  0.00    -0.400 N 
HETATM   57  C   UNK    58      31.830  53.266  42.150  1.00  0.00     0.147 C 
HETATM   58  C   UNK    57      31.209  51.953  42.650  1.00  0.00     0.292 C 
BRANCH  50  59
HETATM   59  C   UNK    61      30.560  49.390  47.000  1.00  0.00     0.381 C 
BRANCH  59  60
HETATM   60  C   UNK    64      31.939  49.312  47.642  1.00  0.00     0.169 C 
HETATM   61  O   UNK    72      32.346  50.027  48.508  1.00  0.00    -0.649 OA
BRANCH  60  62
HETATM   62  O   UNK    73      32.736  48.364  47.116  1.00  0.00    -0.775 OA
HETATM   63  H   UNK   143      32.354  47.929  46.342  1.00  0.00     0.167 HD
ENDBRANCH  60  62
ENDBRANCH  59  60
ENDBRANCH  50  59
BRANCH  53  64
HETATM   64  C   UNK    59      30.584  54.447  46.029  1.00  0.00     0.381 C 
BRANCH  64  65
HETATM   65  C   UNK    65      29.554  55.188  46.880  1.00  0.00     0.169 C 
HETATM   66  O   UNK    69      29.030  56.211  46.540  1.00  0.00    -0.649 OA
BRANCH  65  67
HETATM   67  O   UNK    68      29.288  54.647  48.083  1.00  0.00    -0.775 OA
HETATM   68  H   UNK   141      29.789  55.057  48.802  1.00  0.00     0.167 HD
ENDBRANCH  65  67
ENDBRANCH  64  65
ENDBRANCH  53  64
BRANCH  56  69
HETATM   69  C   UNK    60      30.109  54.176  40.675  1.00  0.00     0.227 C 
BRANCH  69  70
HETATM   70  C   UNK    66      29.746  55.455  39.916  1.00  0.00     0.157 C 
HETATM   71  O   UNK    70      30.362  55.864  38.965  1.00  0.00    -0.649 OA
BRANCH  70  72
HETATM   72  O   UNK    71      28.665  56.103  40.358  1.00  0.00    -0.775 OA
HETATM   73  H   UNK   142      28.194  55.644  41.096  1.00  0.00     0.167 HD
ENDBRANCH  70  72
ENDBRANCH  69  70
ENDBRANCH  56  69
ENDBRANCH  46  47
ENDBRANCH  43  46
ENDBRANCH  41  42
ENDBRANCH  38  41
ENDBRANCH  32  35
ENDBRANCH  19  31
ENDBRANCH  16  19
ENDBRANCH  14  15
ENDBRANCH  13  14
ENDBRANCH  12  13
ENDBRANCH  11  12
ENDBRANCH  10  11
BRANCH  10  74
HETATM   74  C   UNK    20      21.878  54.387  45.883  1.00  0.00     0.163 C 
HETATM   75  O   UNK    21      20.970  53.870  46.470  1.00  0.00    -0.648 OA
BRANCH  74  76
HETATM   76  O   UNK    22      21.805  55.629  45.419  1.00  0.00    -0.775 OA
HETATM   77  H   UNK    93      21.308  56.252  45.993  1.00  0.00     0.167 HD
ENDBRANCH  74  76
ENDBRANCH  10  74
ENDBRANCH   6  10
ENDBRANCH   3   4
BRANCH   3  78
HETATM   78  C   UNK     4      26.425  56.451  44.140  1.00  0.00     0.046 C 
BRANCH  78  79
HETATM   79  C   UNK     5      25.606  57.734  44.026  1.00  0.00     0.112 C 
BRANCH  79  80
HETATM   80  C   UNK     6      24.735  57.931  45.256  1.00  0.00     0.139 C 
HETATM   81  O   UNK     7      23.565  57.688  45.299  1.00  0.00    -0.650 OA
BRANCH  80  82
HETATM   82  O   UNK     8      25.391  58.379  46.339  1.00  0.00    -0.776 OA
HETATM   83  H   UNK    80      25.990  59.110  46.141  1.00  0.00     0.167 HD
ENDBRANCH  80  82
ENDBRANCH  79  80
ENDBRANCH  78  79
ENDBRANCH   3  78
ENDBRANCH   1   3
BRANCH   1  84
HETATM   84  O   UNK    10      26.289  55.187  41.862  1.00  0.00    -0.775 OA
HETATM   85  H   UNK    81      25.774  55.727  41.238  1.00  0.00     0.167 HD
ENDBRANCH   1  84
TORSDOF 33
ENDMDL
MODEL 7
REMARK VINA RESULT:    -8.029      2.067      3.822
REMARK INTER + INTRA:         -28.650
REMARK INTER:                 -23.744
REMARK INTRA:                  -4.905
REMARK UNBOUND:                -6.538
REMARK WARNING: 32 MAX_TORS EXCEEDED!!!
REMARK  33 active torsions:
REMARK  status: ('A' for Active; 'I' for Inactive)
REMARK    1  A    between atoms: C_1  and  C_3 
REMARK    2  A    between atoms: C_1  and  O_10 
REMARK    3  A    between atoms: N_2  and  C_3 
REMARK       I    between atoms: N_2  and  C_11 
REMARK    4  A    between atoms: C_3  and  C_4 
REMARK    5  A    between atoms: C_4  and  C_5 
REMARK    6  A    between atoms: C_5  and  C_6 
REMARK    7  A    between atoms: C_6  and  O_8 
REMARK       I    between atoms: C_11  and  N_12 
REMARK    8  A    between atoms: N_12  and  C_14 
REMARK    9  A    between atoms: C_14  and  C_15 
REMARK   10  A    between atoms: C_14  and  C_20 
REMARK   11  A    between atoms: C_15  and  C_16 
REMARK   12  A    between atoms: C_16  and  C_17 
REMARK   13  A    between atoms: C_17  and  C_18 
REMARK   14  A    between atoms: C_18  and  N_19 
REMARK       I    between atoms: N_19  and  C_23 
REMARK   15  A    between atoms: C_20  and  O_22 
REMARK   16  A    between atoms: C_23  and  C_24 
REMARK   17  A    between atoms: C_24  and  C_25 
REMARK   18  A    between atoms: C_24  and  N_27 
REMARK   19  A    between atoms: C_25  and  C_29 
REMARK       I    between atoms: N_27  and  C_37 
REMARK   20  A    between atoms: C_37  and  C_39 
REMARK   21  A    between atoms: C_42  and  C_45 
REMARK   22  A    between atoms: C_45  and  N_46 
REMARK       I    between atoms: N_46  and  C_63 
REMARK   23  A    between atoms: N_47  and  C_62 
REMARK   24  A    between atoms: N_48  and  C_60 
REMARK   25  A    between atoms: N_49  and  C_59 
REMARK   26  A    between atoms: N_50  and  C_61 
REMARK   27  A    between atoms: C_59  and  C_65 
REMARK   28  A    between atoms: C_60  and  C_66 
REMARK   29  A    between atoms: C_61  and  C_64 
REMARK   30  A    between atoms: C_62  and  C_63 
REMARK   31  A    between atoms: C_64  and  O_73 
REMARK   32  A    between atoms: C_65  and  O_68 
REMARK   33  A    between atoms: C_66  and  O_71 
ROOT
HETATM    1  C   UNK     1      25.715  54.996  43.002  1.00  0.00     0.163 C 
HETATM    2  O   UNK     9      25.205  53.960  42.633  1.00  0.00    -0.648 OA
ENDROOT
BRANCH   1   3
HETATM    3  C   UNK     3      25.805  55.413  44.468  1.00  0.00     0.184 C 
BRANCH   3   4
HETATM    4  N   UNK     2      26.248  54.232  45.198  1.00  0.00    -0.329 N 
HETATM    5  C   UNK    11      25.798  53.933  46.478  1.00  0.00     0.317 C 
HETATM    6  N   UNK    12      24.450  53.954  46.660  1.00  0.00    -0.329 N 
HETATM    7  O   UNK    13      26.574  53.647  47.369  1.00  0.00    -0.247 OA
HETATM    8  H   UNK    82      24.159  53.781  47.614  1.00  0.00     0.165 HD
HETATM    9  H   UNK    74      27.255  54.089  45.129  1.00  0.00     0.165 HD
BRANCH   6  10
HETATM   10  C   UNK    14      23.452  53.626  45.660  1.00  0.00     0.184 C 
BRANCH  10  11
HETATM   11  C   UNK    15      22.928  52.193  45.849  1.00  0.00     0.036 C 
BRANCH  11  12
HETATM   12  C   UNK    16      22.929  51.385  44.549  1.00  0.00     0.004 C 
BRANCH  12  13
HETATM   13  C   UNK    17      21.780  50.381  44.490  1.00  0.00     0.020 C 
BRANCH  13  14
HETATM   14  C   UNK    18      22.217  48.994  43.998  1.00  0.00     0.122 C 
BRANCH  14  15
HETATM   15  N   UNK    19      23.617  48.798  44.297  1.00  0.00    -0.359 N 
HETATM   16  C   UNK    23      24.503  47.975  43.712  1.00  0.00     0.240 C 
HETATM   17  O   UNK    26      25.513  47.632  44.309  1.00  0.00    -0.271 OA
HETATM   18  H   UNK    92      23.896  49.097  45.224  1.00  0.00     0.162 HD
BRANCH  16  19
HETATM   19  C   UNK    24      24.236  47.533  42.265  1.00  0.00     0.182 C 
BRANCH  19  20
HETATM   20  C   UNK    25      24.123  46.011  42.109  1.00  0.00     0.091 C 
BRANCH  20  21
HETATM   21  C   UNK    29      23.218  45.346  43.102  1.00  0.00     0.013 A 
HETATM   22  N   UNK    28      21.855  45.508  43.117  1.00  0.00    -0.359 N 
HETATM   23  C   UNK    36      21.323  44.726  44.101  1.00  0.00     0.042 A 
HETATM   24  H   UNK    98      21.343  46.190  42.574  1.00  0.00     0.166 HD
HETATM   25  C   UNK    31      22.385  44.029  44.727  1.00  0.00    -0.008 A 
HETATM   26  C   UNK    35      20.002  44.541  44.484  1.00  0.00     0.030 A 
HETATM   27  C   UNK    30      23.576  44.440  44.066  1.00  0.00     0.038 A 
HETATM   28  C   UNK    32      22.106  43.151  45.774  1.00  0.00     0.014 A 
HETATM   29  C   UNK    33      20.795  42.977  46.153  1.00  0.00     0.001 A 
HETATM   30  C   UNK    34      19.756  43.660  45.514  1.00  0.00     0.002 A 
ENDBRANCH  20  21
ENDBRANCH  19  20
BRANCH  19  31
HETATM   31  N   UNK    27      25.295  48.020  41.414  1.00  0.00    -0.347 N 
HETATM   32  C   UNK    37      25.442  49.346  41.168  1.00  0.00     0.222 C 
HETATM   33  O   UNK    38      24.599  50.150  41.514  1.00  0.00    -0.273 OA
HETATM   34  H   UNK    97      26.057  47.387  41.238  1.00  0.00     0.163 HD
BRANCH  32  35
HETATM   35  C   UNK    39      26.683  49.713  40.356  1.00  0.00     0.078 C 
HETATM   36  C   UNK    40      27.915  48.879  40.703  1.00  0.00     0.014 C 
HETATM   37  C   UNK    41      28.312  49.126  42.154  1.00  0.00     0.007 C 
HETATM   38  C   UNK    42      28.703  50.588  42.387  1.00  0.00     0.003 C 
HETATM   39  C   UNK    43      27.545  51.489  41.947  1.00  0.00     0.007 C 
HETATM   40  C   UNK    44      27.027  51.196  40.539  1.00  0.00     0.014 C 
BRANCH  38  41
HETATM   41  C   UNK    45      30.039  50.960  41.719  1.00  0.00     0.127 C 
BRANCH  41  42
HETATM   42  N   UNK    46      31.061  50.033  42.160  1.00  0.00    -0.359 N 
HETATM   43  C   UNK    63      32.197  50.203  42.844  1.00  0.00     0.246 C 
HETATM   44  O   UNK    67      33.005  49.274  42.906  1.00  0.00    -0.272 OA
HETATM   45  H   UNK   116      30.961  49.101  41.771  1.00  0.00     0.162 HD
BRANCH  43  46
HETATM   46  C   UNK    62      32.460  51.516  43.583  1.00  0.00     0.374 C 
BRANCH  46  47
HETATM   47  N   UNK    47      32.644  51.408  45.030  1.00  0.00     0.100 N 
HETATM   48  C   UNK    56      31.484  51.763  45.829  1.00  0.00     0.303 C 
HETATM   49  C   UNK    55      31.563  51.172  47.251  1.00  0.00     0.303 C 
HETATM   50  N   UNK    50      31.232  52.182  48.252  1.00  0.00     0.101 N 
HETATM   51  C   UNK    54      32.109  52.204  49.416  1.00  0.00     0.303 C 
HETATM   52  C   UNK    53      33.522  52.724  49.123  1.00  0.00     0.303 C 
HETATM   53  N   UNK    49      34.468  51.763  48.555  1.00  0.00     0.101 N 
HETATM   54  C   UNK    52      35.711  52.430  48.156  1.00  0.00     0.292 C 
HETATM   55  C   UNK    51      36.580  51.609  47.169  1.00  0.00     0.147 C 
HETATM   56  N   UNK    48      36.335  51.721  45.756  1.00  0.00    -0.400 N 
HETATM   57  C   UNK    58      35.098  51.194  45.229  1.00  0.00     0.147 C 
HETATM   58  C   UNK    57      33.854  52.051  45.509  1.00  0.00     0.292 C 
BRANCH  50  59
HETATM   59  C   UNK    61      29.841  52.138  48.639  1.00  0.00     0.381 C 
BRANCH  59  60
HETATM   60  C   UNK    64      29.284  53.479  49.101  1.00  0.00     0.169 C 
HETATM   61  O   UNK    72      28.837  53.712  50.184  1.00  0.00    -0.649 OA
BRANCH  60  62
HETATM   62  O   UNK    73      29.284  54.430  48.149  1.00  0.00    -0.775 OA
HETATM   63  H   UNK   143      29.442  55.319  48.496  1.00  0.00     0.167 HD
ENDBRANCH  60  62
ENDBRANCH  59  60
ENDBRANCH  50  59
BRANCH  53  64
HETATM   64  C   UNK    59      34.694  50.600  49.409  1.00  0.00     0.381 C 
BRANCH  64  65
HETATM   65  C   UNK    65      35.299  50.946  50.769  1.00  0.00     0.169 C 
HETATM   66  O   UNK    69      34.644  51.121  51.757  1.00  0.00    -0.649 OA
BRANCH  65  67
HETATM   67  O   UNK    68      36.636  51.092  50.798  1.00  0.00    -0.775 OA
HETATM   68  H   UNK   141      37.110  50.301  50.511  1.00  0.00     0.167 HD
ENDBRANCH  65  67
ENDBRANCH  64  65
ENDBRANCH  53  64
BRANCH  56  69
HETATM   69  C   UNK    60      36.888  52.846  45.038  1.00  0.00     0.227 C 
BRANCH  69  70
HETATM   70  C   UNK    66      37.792  52.536  43.842  1.00  0.00     0.157 C 
HETATM   71  O   UNK    70      38.963  52.276  43.943  1.00  0.00    -0.649 OA
BRANCH  70  72
HETATM   72  O   UNK    71      37.195  52.544  42.648  1.00  0.00    -0.775 OA
HETATM   73  H   UNK   142      37.822  52.568  41.884  1.00  0.00     0.167 HD
ENDBRANCH  70  72
ENDBRANCH  69  70
ENDBRANCH  56  69
ENDBRANCH  46  47
ENDBRANCH  43  46
ENDBRANCH  41  42
ENDBRANCH  38  41
ENDBRANCH  32  35
ENDBRANCH  19  31
ENDBRANCH  16  19
ENDBRANCH  14  15
ENDBRANCH  13  14
ENDBRANCH  12  13
ENDBRANCH  11  12
ENDBRANCH  10  11
BRANCH  10  74
HETATM   74  C   UNK    20      22.276  54.614  45.787  1.00  0.00     0.163 C 
HETATM   75  O   UNK    21      21.211  54.274  46.220  1.00  0.00    -0.648 OA
BRANCH  74  76
HETATM   76  O   UNK    22      22.516  55.861  45.398  1.00  0.00    -0.775 OA
HETATM   77  H   UNK    93      22.076  56.551  45.941  1.00  0.00     0.167 HD
ENDBRANCH  74  76
ENDBRANCH  10  74
ENDBRANCH   6  10
ENDBRANCH   3   4
BRANCH   3  78
HETATM   78  C   UNK     4      26.766  56.590  44.654  1.00  0.00     0.046 C 
BRANCH  78  79
HETATM   79  C   UNK     5      26.159  57.671  45.546  1.00  0.00     0.112 C 
BRANCH  79  80
HETATM   80  C   UNK     6      25.131  58.489  44.781  1.00  0.00     0.139 C 
HETATM   81  O   UNK     7      24.043  58.093  44.483  1.00  0.00    -0.650 OA
BRANCH  80  82
HETATM   82  O   UNK     8      25.522  59.738  44.480  1.00  0.00    -0.776 OA
HETATM   83  H   UNK    80      26.449  59.905  44.699  1.00  0.00     0.167 HD
ENDBRANCH  80  82
ENDBRANCH  79  80
ENDBRANCH  78  79
ENDBRANCH   3  78
ENDBRANCH   1   3
BRANCH   1  84
HETATM   84  O   UNK    10      26.322  55.832  42.190  1.00  0.00    -0.775 OA
HETATM   85  H   UNK    81      27.178  56.130  42.539  1.00  0.00     0.167 HD
ENDBRANCH   1  84
TORSDOF 33
ENDMDL
MODEL 8
REMARK VINA RESULT:    -7.877      3.632      8.117
REMARK INTER + INTRA:         -28.229
REMARK INTER:                 -24.149
REMARK INTRA:                  -4.080
REMARK UNBOUND:                -6.538
REMARK WARNING: 32 MAX_TORS EXCEEDED!!!
REMARK  33 active torsions:
REMARK  status: ('A' for Active; 'I' for Inactive)
REMARK    1  A    between atoms: C_1  and  C_3 
REMARK    2  A    between atoms: C_1  and  O_10 
REMARK    3  A    between atoms: N_2  and  C_3 
REMARK       I    between atoms: N_2  and  C_11 
REMARK    4  A    between atoms: C_3  and  C_4 
REMARK    5  A    between atoms: C_4  and  C_5 
REMARK    6  A    between atoms: C_5  and  C_6 
REMARK    7  A    between atoms: C_6  and  O_8 
REMARK       I    between atoms: C_11  and  N_12 
REMARK    8  A    between atoms: N_12  and  C_14 
REMARK    9  A    between atoms: C_14  and  C_15 
REMARK   10  A    between atoms: C_14  and  C_20 
REMARK   11  A    between atoms: C_15  and  C_16 
REMARK   12  A    between atoms: C_16  and  C_17 
REMARK   13  A    between atoms: C_17  and  C_18 
REMARK   14  A    between atoms: C_18  and  N_19 
REMARK       I    between atoms: N_19  and  C_23 
REMARK   15  A    between atoms: C_20  and  O_22 
REMARK   16  A    between atoms: C_23  and  C_24 
REMARK   17  A    between atoms: C_24  and  C_25 
REMARK   18  A    between atoms: C_24  and  N_27 
REMARK   19  A    between atoms: C_25  and  C_29 
REMARK       I    between atoms: N_27  and  C_37 
REMARK   20  A    between atoms: C_37  and  C_39 
REMARK   21  A    between atoms: C_42  and  C_45 
REMARK   22  A    between atoms: C_45  and  N_46 
REMARK       I    between atoms: N_46  and  C_63 
REMARK   23  A    between atoms: N_47  and  C_62 
REMARK   24  A    between atoms: N_48  and  C_60 
REMARK   25  A    between atoms: N_49  and  C_59 
REMARK   26  A    between atoms: N_50  and  C_61 
REMARK   27  A    between atoms: C_59  and  C_65 
REMARK   28  A    between atoms: C_60  and  C_66 
REMARK   29  A    between atoms: C_61  and  C_64 
REMARK   30  A    between atoms: C_62  and  C_63 
REMARK   31  A    between atoms: C_64  and  O_73 
REMARK   32  A    between atoms: C_65  and  O_68 
REMARK   33  A    between atoms: C_66  and  O_71 
ROOT
HETATM    1  C   UNK     1      33.274  51.946  50.122  1.00  0.00     0.163 C 
HETATM    2  O   UNK     9      34.057  52.870  50.053  1.00  0.00    -0.648 OA
ENDROOT
BRANCH   1   3
HETATM    3  C   UNK     3      31.844  52.016  49.592  1.00  0.00     0.184 C 
BRANCH   3   4
HETATM    4  N   UNK     2      31.719  50.936  48.622  1.00  0.00    -0.329 N 
HETATM    5  C   UNK    11      30.491  50.522  48.119  1.00  0.00     0.317 C 
HETATM    6  N   UNK    12      29.680  51.503  47.637  1.00  0.00    -0.329 N 
HETATM    7  O   UNK    13      30.183  49.347  48.095  1.00  0.00    -0.247 OA
HETATM    8  H   UNK    82      28.776  51.173  47.325  1.00  0.00     0.165 HD
HETATM    9  H   UNK    74      32.298  50.131  48.861  1.00  0.00     0.165 HD
BRANCH   6  10
HETATM   10  C   UNK    14      30.116  52.738  47.015  1.00  0.00     0.184 C 
BRANCH  10  11
HETATM   11  C   UNK    15      30.131  52.611  45.483  1.00  0.00     0.036 C 
BRANCH  11  12
HETATM   12  C   UNK    16      28.987  51.746  44.948  1.00  0.00     0.004 C 
BRANCH  12  13
HETATM   13  C   UNK    17      29.486  50.615  44.052  1.00  0.00     0.020 C 
BRANCH  13  14
HETATM   14  C   UNK    18      28.449  49.500  43.856  1.00  0.00     0.122 C 
BRANCH  14  15
HETATM   15  N   UNK    19      28.589  48.941  42.532  1.00  0.00    -0.359 N 
HETATM   16  C   UNK    23      27.679  48.298  41.781  1.00  0.00     0.240 C 
HETATM   17  O   UNK    26      28.038  47.553  40.881  1.00  0.00    -0.271 OA
HETATM   18  H   UNK    92      29.545  48.758  42.250  1.00  0.00     0.162 HD
BRANCH  16  19
HETATM   19  C   UNK    24      26.192  48.574  42.051  1.00  0.00     0.182 C 
BRANCH  19  20
HETATM   20  C   UNK    25      25.262  47.507  41.457  1.00  0.00     0.091 C 
BRANCH  20  21
HETATM   21  C   UNK    29      23.953  47.354  42.170  1.00  0.00     0.013 A 
HETATM   22  N   UNK    28      23.407  48.321  42.978  1.00  0.00    -0.359 N 
HETATM   23  C   UNK    36      22.190  47.895  43.424  1.00  0.00     0.042 A 
HETATM   24  H   UNK    98      23.885  49.154  43.292  1.00  0.00     0.166 HD
HETATM   25  C   UNK    31      21.943  46.615  42.869  1.00  0.00    -0.008 A 
HETATM   26  C   UNK    35      21.264  48.526  44.243  1.00  0.00     0.030 A 
HETATM   27  C   UNK    30      23.079  46.302  42.071  1.00  0.00     0.038 A 
HETATM   28  C   UNK    32      20.751  45.956  43.168  1.00  0.00     0.014 A 
HETATM   29  C   UNK    33      19.841  46.584  43.986  1.00  0.00     0.001 A 
HETATM   30  C   UNK    34      20.091  47.855  44.513  1.00  0.00     0.002 A 
ENDBRANCH  20  21
ENDBRANCH  19  20
BRANCH  19  31
HETATM   31  N   UNK    27      25.839  49.865  41.509  1.00  0.00    -0.347 N 
HETATM   32  C   UNK    37      25.378  50.858  42.309  1.00  0.00     0.222 C 
HETATM   33  O   UNK    38      25.088  50.651  43.470  1.00  0.00    -0.273 OA
HETATM   34  H   UNK    97      26.196  50.080  40.592  1.00  0.00     0.163 HD
BRANCH  32  35
HETATM   35  C   UNK    39      25.173  52.200  41.609  1.00  0.00     0.078 C 
HETATM   36  C   UNK    40      26.466  52.833  41.098  1.00  0.00     0.014 C 
HETATM   37  C   UNK    41      27.387  53.143  42.272  1.00  0.00     0.007 C 
HETATM   38  C   UNK    42      26.757  54.163  43.225  1.00  0.00     0.003 C 
HETATM   39  C   UNK    43      25.394  53.637  43.686  1.00  0.00     0.007 C 
HETATM   40  C   UNK    44      24.477  53.195  42.546  1.00  0.00     0.014 C 
BRANCH  38  41
HETATM   41  C   UNK    45      26.679  55.575  42.618  1.00  0.00     0.127 C 
BRANCH  41  42
HETATM   42  N   UNK    46      25.642  56.324  43.299  1.00  0.00    -0.359 N 
HETATM   43  C   UNK    63      25.226  57.590  43.190  1.00  0.00     0.246 C 
HETATM   44  O   UNK    67      24.461  58.046  44.043  1.00  0.00    -0.272 OA
HETATM   45  H   UNK   116      25.242  55.835  44.093  1.00  0.00     0.162 HD
BRANCH  43  46
HETATM   46  C   UNK    62      25.651  58.438  41.991  1.00  0.00     0.374 C 
BRANCH  46  47
HETATM   47  N   UNK    47      26.924  59.145  42.129  1.00  0.00     0.100 N 
HETATM   48  C   UNK    56      27.988  58.679  41.256  1.00  0.00     0.303 C 
HETATM   49  C   UNK    55      29.096  59.738  41.085  1.00  0.00     0.303 C 
HETATM   50  N   UNK    50      30.417  59.137  41.248  1.00  0.00     0.101 N 
HETATM   51  C   UNK    54      31.348  59.910  42.061  1.00  0.00     0.303 C 
HETATM   52  C   UNK    53      30.997  59.937  43.554  1.00  0.00     0.303 C 
HETATM   53  N   UNK    49      29.986  60.909  43.970  1.00  0.00     0.101 N 
HETATM   54  C   UNK    52      29.616  60.706  45.374  1.00  0.00     0.292 C 
HETATM   55  C   UNK    51      28.276  61.372  45.778  1.00  0.00     0.147 C 
HETATM   56  N   UNK    48      27.046  60.650  45.588  1.00  0.00    -0.400 N 
HETATM   57  C   UNK    58      26.603  60.392  44.238  1.00  0.00     0.147 C 
HETATM   58  C   UNK    57      27.366  59.279  43.504  1.00  0.00     0.292 C 
BRANCH  50  59
HETATM   59  C   UNK    61      31.008  58.755  39.986  1.00  0.00     0.381 C 
BRANCH  59  60
HETATM   60  C   UNK    64      31.037  57.251  39.746  1.00  0.00     0.169 C 
HETATM   61  O   UNK    72      30.461  56.673  38.874  1.00  0.00    -0.649 OA
BRANCH  60  62
HETATM   62  O   UNK    73      31.759  56.565  40.652  1.00  0.00    -0.775 OA
HETATM   63  H   UNK   143      32.629  56.297  40.324  1.00  0.00     0.167 HD
ENDBRANCH  60  62
ENDBRANCH  59  60
ENDBRANCH  50  59
BRANCH  53  64
HETATM   64  C   UNK    59      30.353  62.291  43.672  1.00  0.00     0.381 C 
BRANCH  64  65
HETATM   65  C   UNK    65      29.401  62.982  42.697  1.00  0.00     0.169 C 
HETATM   66  O   UNK    69      29.689  63.237  41.562  1.00  0.00    -0.649 OA
BRANCH  65  67
HETATM   67  O   UNK    68      28.205  63.342  43.199  1.00  0.00    -0.775 OA
HETATM   68  H   UNK   141      27.624  63.745  42.541  1.00  0.00     0.167 HD
ENDBRANCH  65  67
ENDBRANCH  64  65
ENDBRANCH  53  64
BRANCH  56  69
HETATM   69  C   UNK    60      26.655  59.666  46.571  1.00  0.00     0.227 C 
BRANCH  69  70
HETATM   70  C   UNK    66      27.081  59.919  48.019  1.00  0.00     0.157 C 
HETATM   71  O   UNK    70      26.502  60.670  48.762  1.00  0.00    -0.649 OA
BRANCH  70  72
HETATM   72  O   UNK    71      28.143  59.227  48.440  1.00  0.00    -0.775 OA
HETATM   73  H   UNK   142      28.169  58.294  48.116  1.00  0.00     0.167 HD
ENDBRANCH  70  72
ENDBRANCH  69  70
ENDBRANCH  56  69
ENDBRANCH  46  47
ENDBRANCH  43  46
ENDBRANCH  41  42
ENDBRANCH  38  41
ENDBRANCH  32  35
ENDBRANCH  19  31
ENDBRANCH  16  19
ENDBRANCH  14  15
ENDBRANCH  13  14
ENDBRANCH  12  13
ENDBRANCH  11  12
ENDBRANCH  10  11
BRANCH  10  74
HETATM   74  C   UNK    20      29.149  53.868  47.418  1.00  0.00     0.163 C 
HETATM   75  O   UNK    21      29.423  55.023  47.252  1.00  0.00    -0.648 OA
BRANCH  74  76
HETATM   76  O   UNK    22      27.993  53.485  47.950  1.00  0.00    -0.775 OA
HETATM   77  H   UNK    93      27.216  54.015  47.665  1.00  0.00     0.167 HD
ENDBRANCH  74  76
ENDBRANCH  10  74
ENDBRANCH   6  10
ENDBRANCH   3   4
BRANCH   3  78
HETATM   78  C   UNK     4      30.823  51.883  50.725  1.00  0.00     0.046 C 
BRANCH  78  79
HETATM   79  C   UNK     5      30.006  53.162  50.894  1.00  0.00     0.112 C 
BRANCH  79  80
HETATM   80  C   UNK     6      29.711  53.426  52.362  1.00  0.00     0.139 C 
HETATM   81  O   UNK     7      30.494  53.250  53.248  1.00  0.00    -0.650 OA
BRANCH  80  82
HETATM   82  O   UNK     8      28.486  53.919  52.606  1.00  0.00    -0.776 OA
HETATM   83  H   UNK    80      27.882  53.260  52.973  1.00  0.00     0.167 HD
ENDBRANCH  80  82
ENDBRANCH  79  80
ENDBRANCH  78  79
ENDBRANCH   3  78
ENDBRANCH   1   3
BRANCH   1  84
HETATM   84  O   UNK    10      33.596  50.759  50.583  1.00  0.00    -0.775 OA
HETATM   85  H   UNK    81      34.047  50.214  49.916  1.00  0.00     0.167 HD
ENDBRANCH   1  84
TORSDOF 33
ENDMDL
MODEL 9
REMARK VINA RESULT:    -7.758      2.932      7.430
REMARK INTER + INTRA:         -27.902
REMARK INTER:                 -21.363
REMARK INTRA:                  -6.538
REMARK UNBOUND:                -6.538
REMARK WARNING: 32 MAX_TORS EXCEEDED!!!
REMARK  33 active torsions:
REMARK  status: ('A' for Active; 'I' for Inactive)
REMARK    1  A    between atoms: C_1  and  C_3 
REMARK    2  A    between atoms: C_1  and  O_10 
REMARK    3  A    between atoms: N_2  and  C_3 
REMARK       I    between atoms: N_2  and  C_11 
REMARK    4  A    between atoms: C_3  and  C_4 
REMARK    5  A    between atoms: C_4  and  C_5 
REMARK    6  A    between atoms: C_5  and  C_6 
REMARK    7  A    between atoms: C_6  and  O_8 
REMARK       I    between atoms: C_11  and  N_12 
REMARK    8  A    between atoms: N_12  and  C_14 
REMARK    9  A    between atoms: C_14  and  C_15 
REMARK   10  A    between atoms: C_14  and  C_20 
REMARK   11  A    between atoms: C_15  and  C_16 
REMARK   12  A    between atoms: C_16  and  C_17 
REMARK   13  A    between atoms: C_17  and  C_18 
REMARK   14  A    between atoms: C_18  and  N_19 
REMARK       I    between atoms: N_19  and  C_23 
REMARK   15  A    between atoms: C_20  and  O_22 
REMARK   16  A    between atoms: C_23  and  C_24 
REMARK   17  A    between atoms: C_24  and  C_25 
REMARK   18  A    between atoms: C_24  and  N_27 
REMARK   19  A    between atoms: C_25  and  C_29 
REMARK       I    between atoms: N_27  and  C_37 
REMARK   20  A    between atoms: C_37  and  C_39 
REMARK   21  A    between atoms: C_42  and  C_45 
REMARK   22  A    between atoms: C_45  and  N_46 
REMARK       I    between atoms: N_46  and  C_63 
REMARK   23  A    between atoms: N_47  and  C_62 
REMARK   24  A    between atoms: N_48  and  C_60 
REMARK   25  A    between atoms: N_49  and  C_59 
REMARK   26  A    between atoms: N_50  and  C_61 
REMARK   27  A    between atoms: C_59  and  C_65 
REMARK   28  A    between atoms: C_60  and  C_66 
REMARK   29  A    between atoms: C_61  and  C_64 
REMARK   30  A    between atoms: C_62  and  C_63 
REMARK   31  A    between atoms: C_64  and  O_73 
REMARK   32  A    between atoms: C_65  and  O_68 
REMARK   33  A    between atoms: C_66  and  O_71 
ROOT
HETATM    1  C   UNK     1      19.643  46.153  43.526  1.00  0.00     0.163 C 
HETATM    2  O   UNK     9      19.258  45.648  42.493  1.00  0.00    -0.648 OA
ENDROOT
BRANCH   1   3
HETATM    3  C   UNK     3      21.114  46.226  43.928  1.00  0.00     0.184 C 
BRANCH   3   4
HETATM    4  N   UNK     2      21.211  47.290  44.919  1.00  0.00    -0.329 N 
HETATM    5  C   UNK    11      22.381  47.552  45.622  1.00  0.00     0.317 C 
HETATM    6  N   UNK    12      23.511  47.683  44.875  1.00  0.00    -0.329 N 
HETATM    7  O   UNK    13      22.376  47.677  46.830  1.00  0.00    -0.247 OA
HETATM    8  H   UNK    82      24.352  47.824  45.421  1.00  0.00     0.165 HD
HETATM    9  H   UNK    74      20.405  47.312  45.544  1.00  0.00     0.165 HD
BRANCH   6  10
HETATM   10  C   UNK    14      23.581  48.200  43.522  1.00  0.00     0.184 C 
BRANCH  10  11
HETATM   11  C   UNK    15      24.193  49.610  43.498  1.00  0.00     0.036 C 
BRANCH  11  12
HETATM   12  C   UNK    16      23.173  50.705  43.820  1.00  0.00     0.004 C 
BRANCH  12  13
HETATM   13  C   UNK    17      23.840  52.040  44.145  1.00  0.00     0.020 C 
BRANCH  13  14
HETATM   14  C   UNK    18      24.399  52.751  42.904  1.00  0.00     0.122 C 
BRANCH  14  15
HETATM   15  N   UNK    19      25.779  53.108  43.137  1.00  0.00    -0.359 N 
HETATM   16  C   UNK    23      26.897  52.523  42.673  1.00  0.00     0.240 C 
HETATM   17  O   UNK    26      27.961  52.679  43.255  1.00  0.00    -0.271 OA
HETATM   18  H   UNK    92      25.935  53.677  43.961  1.00  0.00     0.162 HD
BRANCH  16  19
HETATM   19  C   UNK    24      26.804  51.714  41.371  1.00  0.00     0.182 C 
BRANCH  19  20
HETATM   20  C   UNK    25      27.232  50.250  41.537  1.00  0.00     0.091 C 
BRANCH  20  21
HETATM   21  C   UNK    29      26.697  49.320  40.491  1.00  0.00     0.013 A 
HETATM   22  N   UNK    28      27.225  48.079  40.233  1.00  0.00    -0.359 N 
HETATM   23  C   UNK    36      26.476  47.467  39.270  1.00  0.00     0.042 A 
HETATM   24  H   UNK    98      28.098  47.729  40.603  1.00  0.00     0.166 HD
HETATM   25  C   UNK    31      25.423  48.345  38.911  1.00  0.00    -0.008 A 
HETATM   26  C   UNK    35      26.605  46.209  38.697  1.00  0.00     0.030 A 
HETATM   27  C   UNK    30      25.588  49.511  39.709  1.00  0.00     0.038 A 
HETATM   28  C   UNK    32      24.504  47.951  37.939  1.00  0.00     0.014 A 
HETATM   29  C   UNK    33      24.642  46.706  37.371  1.00  0.00     0.001 A 
HETATM   30  C   UNK    34      25.676  45.844  37.748  1.00  0.00     0.002 A 
ENDBRANCH  20  21
ENDBRANCH  19  20
BRANCH  19  31
HETATM   31  N   UNK    27      27.627  52.337  40.361  1.00  0.00    -0.347 N 
HETATM   32  C   UNK    37      27.300  53.545  39.838  1.00  0.00     0.222 C 
HETATM   33  O   UNK    38      26.227  54.065  40.071  1.00  0.00    -0.273 OA
HETATM   34  H   UNK    97      28.565  51.982  40.264  1.00  0.00     0.163 HD
BRANCH  32  35
HETATM   35  C   UNK    39      28.335  54.128  38.879  1.00  0.00     0.078 C 
HETATM   36  C   UNK    40      29.535  53.214  38.635  1.00  0.00     0.014 C 
HETATM   37  C   UNK    41      30.291  52.998  39.941  1.00  0.00     0.007 C 
HETATM   38  C   UNK    42      30.857  54.313  40.484  1.00  0.00     0.003 C 
HETATM   39  C   UNK    43      29.713  55.320  40.643  1.00  0.00     0.007 C 
HETATM   40  C   UNK    44      28.845  55.480  39.394  1.00  0.00     0.014 C 
BRANCH  38  41
HETATM   41  C   UNK    45      32.019  54.857  39.635  1.00  0.00     0.127 C 
BRANCH  41  42
HETATM   42  N   UNK    46      33.172  53.996  39.807  1.00  0.00    -0.359 N 
HETATM   43  C   UNK    63      33.965  53.752  40.857  1.00  0.00     0.246 C 
HETATM   44  O   UNK    67      35.017  53.134  40.683  1.00  0.00    -0.272 OA
HETATM   45  H   UNK   116      33.519  53.601  38.940  1.00  0.00     0.162 HD
BRANCH  43  46
HETATM   46  C   UNK    62      33.539  54.188  42.260  1.00  0.00     0.374 C 
BRANCH  46  47
HETATM   47  N   UNK    47      33.024  53.130  43.128  1.00  0.00     0.100 N 
HETATM   48  C   UNK    56      32.732  51.871  42.462  1.00  0.00     0.303 C 
HETATM   49  C   UNK    55      32.681  50.694  43.457  1.00  0.00     0.303 C 
HETATM   50  N   UNK    50      31.502  49.866  43.220  1.00  0.00     0.101 N 
HETATM   51  C   UNK    54      30.786  49.459  44.422  1.00  0.00     0.303 C 
HETATM   52  C   UNK    53      30.041  50.603  45.122  1.00  0.00     0.303 C 
HETATM   53  N   UNK    49      30.836  51.456  46.007  1.00  0.00     0.101 N 
HETATM   54  C   UNK    52      30.052  52.608  46.462  1.00  0.00     0.292 C 
HETATM   55  C   UNK    51      30.907  53.770  47.029  1.00  0.00     0.147 C 
HETATM   56  N   UNK    48      31.423  54.767  46.128  1.00  0.00    -0.400 N 
HETATM   57  C   UNK    58      32.439  54.376  45.180  1.00  0.00     0.147 C 
HETATM   58  C   UNK    57      31.932  53.561  43.981  1.00  0.00     0.292 C 
BRANCH  50  59
HETATM   59  C   UNK    61      31.786  48.736  42.366  1.00  0.00     0.381 C 
BRANCH  59  60
HETATM   60  C   UNK    64      30.637  48.356  41.440  1.00  0.00     0.169 C 
HETATM   61  O   UNK    72      30.275  48.978  40.487  1.00  0.00    -0.649 OA
BRANCH  60  62
HETATM   62  O   UNK    73      29.987  47.235  41.804  1.00  0.00    -0.775 OA
HETATM   63  H   UNK   143      29.842  46.621  41.070  1.00  0.00     0.167 HD
ENDBRANCH  60  62
ENDBRANCH  59  60
ENDBRANCH  50  59
BRANCH  53  64
HETATM   64  C   UNK    59      31.464  50.724  47.105  1.00  0.00     0.381 C 
BRANCH  64  65
HETATM   65  C   UNK    65      30.486  50.305  48.201  1.00  0.00     0.169 C 
HETATM   66  O   UNK    69      30.434  50.832  49.276  1.00  0.00    -0.649 OA
BRANCH  65  67
HETATM   67  O   UNK    68      29.692  49.258  47.911  1.00  0.00    -0.775 OA
HETATM   68  H   UNK   141      29.825  48.506  48.504  1.00  0.00     0.167 HD
ENDBRANCH  65  67
ENDBRANCH  64  65
ENDBRANCH  53  64
BRANCH  56  69
HETATM   69  C   UNK    60      30.555  55.840  45.703  1.00  0.00     0.227 C 
BRANCH  69  70
HETATM   70  C   UNK    66      29.061  55.525  45.585  1.00  0.00     0.157 C 
HETATM   71  O   UNK    70      28.270  55.706  46.475  1.00  0.00    -0.649 OA
BRANCH  70  72
HETATM   72  O   UNK    71      28.662  55.048  44.404  1.00  0.00    -0.775 OA
HETATM   73  H   UNK   142      28.263  55.729  43.808  1.00  0.00     0.167 HD
ENDBRANCH  70  72
ENDBRANCH  69  70
ENDBRANCH  56  69
ENDBRANCH  46  47
ENDBRANCH  43  46
ENDBRANCH  41  42
ENDBRANCH  38  41
ENDBRANCH  32  35
ENDBRANCH  19  31
ENDBRANCH  16  19
ENDBRANCH  14  15
ENDBRANCH  13  14
ENDBRANCH  12  13
ENDBRANCH  11  12
ENDBRANCH  10  11
BRANCH  10  74
HETATM   74  C   UNK    20      24.455  47.257  42.673  1.00  0.00     0.163 C 
HETATM   75  O   UNK    21      23.987  46.565  41.813  1.00  0.00    -0.648 OA
BRANCH  74  76
HETATM   76  O   UNK    22      25.756  47.264  42.944  1.00  0.00    -0.775 OA
HETATM   77  H   UNK    93      26.259  47.994  42.521  1.00  0.00     0.167 HD
ENDBRANCH  74  76
ENDBRANCH  10  74
ENDBRANCH   6  10
ENDBRANCH   3   4
BRANCH   3  78
HETATM   78  C   UNK     4      21.606  44.886  44.483  1.00  0.00     0.046 C 
BRANCH  78  79
HETATM   79  C   UNK     5      20.463  44.084  45.100  1.00  0.00     0.112 C 
BRANCH  79  80
HETATM   80  C   UNK     6      20.433  44.259  46.610  1.00  0.00     0.139 C 
HETATM   81  O   UNK     7      20.736  43.408  47.392  1.00  0.00    -0.650 OA
BRANCH  80  82
HETATM   82  O   UNK     8      20.065  45.483  47.023  1.00  0.00    -0.776 OA
HETATM   83  H   UNK    80      20.013  46.124  46.301  1.00  0.00     0.167 HD
ENDBRANCH  80  82
ENDBRANCH  79  80
ENDBRANCH  78  79
ENDBRANCH   3  78
ENDBRANCH   1   3
BRANCH   1  84
HETATM   84  O   UNK    10      18.846  46.768  44.371  1.00  0.00    -0.775 OA
HETATM   85  H   UNK    81      18.119  47.230  43.922  1.00  0.00     0.167 HD
ENDBRANCH   1  84
TORSDOF 33
ENDMDL
